version 2
run General-0-20180808-20:50:09-10137
attr configname General
attr datetime 20180808-20:50:09
attr experiment General
attr inifile omnetpp.ini
attr iterationvars ""
attr iterationvarsf ""
attr measurement ""
attr network veinsbdi.LightJasonScenario
attr processid 10137
attr repetition 0
attr replication #0
attr resultdir results
attr runnumber 0
attr seedset 0
param *.playgroundSizeX 1000m
param *.playgroundSizeY 1000m
param *.playgroundSizeZ 50m
param *.*.updateInterval 0.1s
param *.manager.host "\"localhost\""
param *.manager.port 9999
param *.manager.autoShutdown false
param *.manager.moduleType "\"org.car2x.veins.nodes.Car\""
param *.manager.moduleName "\"node\""
param *.manager.moduleDisplayString "\"\""
param *.manager.launchConfig "xmldoc(\"demo.launchd.xml\")"
param *.connectionManager.pMax 20mW
param *.connectionManager.sat -89dBm
param *.connectionManager.alpha 2.0
param *.connectionManager.carrierFrequency "5.890e9 Hz"
param *.connectionManager.sendDirect true
param *.connectionManager.maxInterfDist 2600m
param *.node[*].nicType "\"Nic80211p\""
param *.**.nic.mac1609_4.txPower 20mW
param *.**.nic.mac1609_4.bitrate 18Mbps
param *.**.nic.phy80211p.sensitivity -89dBm
param *.**.nic.phy80211p.useThermalNoise true
param *.**.nic.phy80211p.thermalNoise -110dBm
param *.**.nic.phy80211p.decider "xmldoc(\"config.xml\")"
param *.**.nic.phy80211p.analogueModels "xmldoc(\"config.xml\")"
param *.**.nic.phy80211p.usePropagationDelay true
param *.node[*].applType "\"veinsbdi.AgentAppl\""
param *.node[*].appl.dataPriority 2
param *.node[*].veinsmobilityType "\"org.car2x.veins.modules.mobility.traci.TraCIMobility\""
param *.node[*].veinsmobility.x 0
param *.node[*].veinsmobility.y 0
param *.node[*].veinsmobility.z 0
param **.debug true
param **.coreDebug true

vector 0 LightJasonScenario.node[0].veinsmobility posx ETV
vector 1 LightJasonScenario.node[0].veinsmobility posy ETV
vector 2 LightJasonScenario.node[1].veinsmobility posx ETV
vector 3 LightJasonScenario.node[1].veinsmobility posy ETV
vector 4 LightJasonScenario.node[0].veinsmobility speed ETV
vector 5 LightJasonScenario.node[1].veinsmobility speed ETV
vector 6 LightJasonScenario.node[0].veinsmobility acceleration ETV
vector 7 LightJasonScenario.node[0].veinsmobility co2emission ETV
vector 8 LightJasonScenario.node[1].veinsmobility acceleration ETV
vector 9 LightJasonScenario.node[1].veinsmobility co2emission ETV
9	213	10.3	1.1112459166707
9	219	10.4	1.1118000301583
9	240	10.5	1.1123233352344
9	246	10.6	1.112882293534
9	252	10.7	1.1131515754991
9	273	10.8	1.1137368705576
9	279	10.9	1.113517102
9	285	11	1.1135688775203
9	291	11.1	1.114649592042
9	297	11.2	1.1142414904718
9	303	11.3	1.1149300399043
9	309	11.4	1.1150985786981
9	330	11.5	1.1144084275101
9	336	11.6	1.1167506751135
9	342	11.7	1.1173486122459
9	363	11.8	1.1182213494905
9	369	11.9	1.1160686856461
9	375	12	1.1163399488016
9	381	12.1	1.1161448281441
9	387	12.2	1.1158421863412
9	393	12.3	1.1164670357147
9	399	12.4	1.1177882082838
9	420	12.5	1.1169275146299
9	426	12.6	1.1196057215984
9	432	12.7	1.1180729191351
9	453	12.8	1.1203603899235
9	459	12.9	1.1174834140975
9	465	13	1.1193073779571
9	471	13.1	1.1200746407894
9	477	13.2	1.1211443685343
9	483	13.3	1.1191904624598
9	489	13.4	1.1208365026453
9	510	13.5	1.120611633665
9	516	13.6	1.1237140422109
9	522	13.7	1.1211806448949
9	543	13.8	1.121430053627
9	549	13.9	1.1216271099586
9	555	14	1.1200616856385
9	561	14.1	1.1215201482692
9	567	14.2	1.1235285316927
9	573	14.3	1.1234796425296
9	579	14.4	1.1222779714441
9	600	14.5	1.126340701425
9	606	14.6	1.1231589480956
9	612	14.7	1.1233222114675
9	633	14.8	1.1264837117005
9	639	14.9	1.1275679263977
9	645	15	1.1268707935932
9	651	15.1	1.1269722275181
9	686	15.2	1.1258958038846
9	692	15.3	1.1271029053813
9	698	15.4	1.1234404206654
9	719	15.5	1.1299842623245
9	725	15.6	1.1297807100492
9	731	15.7	1.1306918897991
9	752	15.8	1.1273060176112
9	758	15.9	1.1307465252375
9	764	16	1.129464975532
9	770	16.1	1.1316705149901
9	776	16.2	1.1329184925845
9	782	16.3	1.1339303877839
9	788	16.4	1.1296067397491
9	809	16.5	1.1345325782459
9	815	16.6	1.1345757482358
9	821	16.7	1.1334686513054
9	842	16.8	1.1295323076579
9	848	16.9	1.1366470422962
9	854	17	1.129936252798
9	860	17.1	1.1374031069262
9	866	17.2	1.1291133680923
9	872	17.3	1.1342291475531
9	878	17.4	1.1293814002899
9	899	17.5	1.133168571733
9	905	17.6	1.1320118468523
9	911	17.7	1.1395077342032
9	932	17.8	1.1375519801535
9	938	17.9	1.1398108153493
9	944	18	1.1384503005084
9	950	18.1	1.1409281759215
9	956	18.2	1.1392326059435
9	962	18.3	1.1385497396109
9	968	18.4	1.1430748522777
9	989	18.5	1.1361735896421
9	995	18.6	1.1378543605469
9	1001	18.7	1.1417835678032
9	1022	18.8	1.1390744181892
9	1028	18.9	1.1447443472536
9	1034	19	1.1392349122207
9	1040	19.1	1.1350133524129
9	1046	19.2	1.1428225027174
9	1052	19.3	1.1387440003203
9	1058	19.4	1.1459378399282
9	1079	19.5	1.1387771595702
9	1085	19.6	1.1446155654305
9	1091	19.7	1.1465260731736
9	1112	19.8	1.1415422654834
9	1118	19.9	1.1496410987637
9	1124	20	1.1389812201878
9	1130	20.1	1.1506893613282
9	1165	20.2	1.1417349191598
9	1171	20.3	1.1477823302324
9	1177	20.4	1.1414960506095
9	1198	20.5	1.1383620006857
9	1204	20.6	1.148776342386
9	1210	20.7	1.1444150074625
9	1231	20.8	1.1444270499286
9	1237	20.9	1.1449604993532
9	1243	21	1.1505034577211
9	1249	21.1	1.1398958036384
9	1255	21.2	1.1476092847132
9	1261	21.3	1.1418140358231
9	1267	21.4	1.1441484919876
9	1288	21.5	1.1505668928546
9	1294	21.6	1.1429234290641
9	1300	21.7	1.1495782083528
9	1321	21.8	1.1422812627485
9	1327	21.9	1.1470870137577
9	1333	22	1.1425465943492
9	1339	22.1	1.1456207120943
9	1345	22.2	1.1452673152059
9	1351	22.3	1.1490352174006
9	1357	22.4	1.1419617790457
9	1378	22.5	1.1470370546987
9	1384	22.6	1.1508514275442
9	1390	22.7	1.1481882207911
9	1411	22.8	1.1582497114985
9	1417	22.9	1.1541394025622
9	1423	23	1.1484732613153
9	1429	23.1	1.1550145889885
9	1435	23.2	1.149794122871
9	1441	23.3	1.153306065867
9	1447	23.4	1.1588374795158
9	1468	23.5	1.1565233690226
9	1474	23.6	1.1521038889702
9	1480	23.7	1.1519804615863
9	1501	23.8	1.1525180074941
9	1507	23.9	1.1513343365658
9	1513	24	1.151551147121
9	1519	24.1	1.1558035167697
9	1525	24.2	1.1475739888582
9	1531	24.3	1.1574088414789
9	1537	24.4	1.1565302232872
9	1558	24.5	1.1483217855326
9	1564	24.6	1.1499802426002
9	1570	24.7	1.1520058551682
9	1591	24.8	1.1636615223424
9	1597	24.9	1.1485618197896
9	1603	25	1.1525167581325
9	1609	25.1	1.1472325440618
9	1644	25.2	1.1635911227508
9	1650	25.3	1.1501666872892
9	1656	25.4	1.1640111619377
9	1677	25.5	1.155621176201
9	1683	25.6	1.1656227664163
9	1689	25.7	1.1517168061784
9	1710	25.8	1.1526063067518
9	1716	25.9	1.1574798227593
9	1722	26	1.1610086997599
9	1728	26.1	1.1683073351687
9	1734	26.2	1.1559951619384
9	1740	26.3	1.1611944993548
9	1746	26.4	1.15595863351
9	1767	26.5	1.1531213227808
9	1773	26.6	1.1509320559214
9	1779	26.7	1.1534222527256
9	1800	26.8	1.1711953881671
9	1806	26.9	1.164482775558
9	1812	27	1.157007990145
9	1818	27.1	1.1691145991037
9	1824	27.2	1.1621108154783
9	1830	27.3	1.1725770680309
9	1836	27.4	1.1700294773321
9	1857	27.5	1.174621420345
9	1863	27.6	1.1579569993144
9	1869	27.7	1.1708363968723
9	1890	27.8	1.1686005835183
9	1896	27.9	1.1557966310838
9	1902	28	1.1608931938617
9	1908	28.1	1.1764677396727
9	1914	28.2	1.1740707134767
9	1920	28.3	1.1639848368205
9	1926	28.4	1.1652351001945
9	1947	28.5	1.1734647221319
9	1953	28.6	1.1575280139268
9	1959	28.7	1.1651008732286
9	1980	28.8	1.167183081814
9	1986	28.9	1.1661656981722
9	1992	29	1.1630536545245
9	1998	29.1	1.1732529310197
9	2004	29.2	1.1716059205073
9	2010	29.3	1.1765910077501
9	2016	29.4	1.1777087868582
9	2037	29.5	1.1595277837823
9	2043	29.6	1.1645923143781
9	2049	29.7	1.1709033734822
9	2070	29.8	1.1777918091558
9	2076	29.9	1.1776302105688
9	2082	30	1.1831271734294
9	2088	30.1	1.1741412479248
9	2123	30.2	1.1776481617887
9	2129	30.3	1.1681616236692
9	2135	30.4	1.1765802957904
9	2156	30.5	1.1821605951975
9	2162	30.6	1.1868188387364
9	2168	30.7	1.1863845569267
9	2189	30.8	1.1706547250928
9	2195	30.9	1.1768755024547
9	2201	31	1.1749808139606
9	2207	31.1	1.1655589198368
9	2213	31.2	1.1630967418499
9	2219	31.3	1.1839965917526
9	2225	31.4	1.1723514474243
9	2246	31.5	1.1834771828247
9	2252	31.6	1.1906844571904
9	2258	31.7	1.1708807026178
9	2279	31.8	1.1831936915724
9	2285	31.9	1.1818563322922
9	2291	32	1.1764856744471
9	2297	32.1	1.1699014035617
9	2303	32.2	1.175678423737
9	2309	32.3	1.1690134846149
9	2315	32.4	1.186061054873
9	2336	32.5	1.1715729866064
9	2342	32.6	1.1892008545242
9	2348	32.7	1.1676878158664
9	2369	32.8	1.1753142249139
9	2375	32.9	1.1891349000073
9	2381	33	1.1684135985034
9	2387	33.1	1.1747026441517
9	2393	33.2	1.1887565871569
9	2399	33.3	1.1904505924526
9	2405	33.4	1.181961321676
9	2426	33.5	1.1969043186882
9	2432	33.6	1.1921421320791
9	2438	33.7	1.1861291759289
9	2459	33.8	1.1880170941873
9	2465	33.9	1.185698626944
9	2471	34	1.1917090678543
9	2477	34.1	1.1826980860253
9	2483	34.2	1.1744482915325
9	2489	34.3	1.1975022949556
9	2495	34.4	1.1856876877705
9	2516	34.5	1.1980021735469
9	2522	34.6	1.1802640037285
9	2528	34.7	1.1904847376707
9	2549	34.8	1.185522987354
9	2555	34.9	1.1978971984573
9	2561	35	1.199685815747
9	2567	35.1	1.1892481363116
9	2602	35.2	1.1938269431655
9	2608	35.3	1.1753757390545
9	2614	35.4	1.1810394623628
9	2635	35.5	1.1817048478316
9	2641	35.6	1.1768336198107
9	2647	35.7	1.2035320810504
9	2668	35.8	1.1888087938597
9	2674	35.9	1.1880170863656
9	2680	36	1.1758874255691
9	2686	36.1	1.197916465487
9	2692	36.2	1.2000863231837
9	2698	36.3	1.2052940912672
9	2704	36.4	1.208754563212
9	2725	36.5	1.1786563750101
9	2731	36.6	1.1874156316332
9	2737	36.7	1.1837174148764
9	2758	36.8	1.200880448248
9	2764	36.9	1.1909705296096
9	2770	37	1.2091001058353
9	2776	37.1	1.1952262464633
9	2782	37.2	1.1786258807123
9	2788	37.3	1.1821010051838
9	2794	37.4	1.2007295698554
9	2815	37.5	1.1795733141112
9	2821	37.6	1.2048886041463
9	2827	37.7	1.1803991840324
9	2848	37.8	1.1806999946833
9	2854	37.9	1.1856683366264
9	2860	38	1.1916590917012
9	2866	38.1	1.1833544070614
9	2872	38.2	1.2037896192382
9	2878	38.3	1.1846751402008
9	2884	38.4	1.192883035996
9	2905	38.5	1.214552787265
9	2911	38.6	1.2033203279239
9	2917	38.7	1.2108892593803
9	2938	38.8	1.181506737399
9	2944	38.9	1.1995785776751
9	2950	39	1.1992118723701
9	2956	39.1	1.1943745619344
9	2962	39.2	1.2044207461325
9	2968	39.3	1.2133034903564
9	2974	39.4	1.188762381779
9	2995	39.5	1.2120755349612
9	3001	39.6	1.2007374856669
9	3007	39.7	1.2116823159864
9	3028	39.8	1.2169351534719
9	3034	39.9	1.1889454125669
9	3040	40	1.1848899631849
9	3046	40.1	1.1853536328646
9	3081	40.2	1.1873968528003
9	3087	40.3	1.1923939267936
9	3093	40.4	1.2090697105713
9	3114	40.5	1.2190481746822
9	3120	40.6	1.2072832911033
9	3126	40.7	1.2143399033982
9	3147	40.8	1.2186910611762
9	3153	40.9	1.2223553106019
9	3159	41	1.1969743263295
9	3165	41.1	1.2248696664277
9	3171	41.2	1.195925850838
9	3177	41.3	1.220432844627
9	3183	41.4	1.2236869896454
9	3204	41.5	1.2239416029845
9	3210	41.6	1.2014167433563
9	3216	41.7	1.2185948955678
9	3237	41.8	1.2120834002977
9	3243	41.9	1.2069572128261
9	3249	42	1.1950543838234
9	3255	42.1	1.2004841150188
9	3261	42.2	1.2190557769426
9	3267	42.3	1.2251857850664
9	3273	42.4	1.2289069622315
9	3294	42.5	1.2194655123762
9	3300	42.6	1.2215527085791
9	3306	42.7	1.2140213262256
9	3327	42.8	1.2049584760343
9	3333	42.9	1.204626829527
9	3339	43	1.2219321310372
9	3345	43.1	1.2183750052185
9	3351	43.2	1.2271202036976
9	3357	43.3	1.2021135091026
9	3363	43.4	1.2330901525845
9	3384	43.5	1.2066069295452
9	3390	43.6	1.2033196799184
9	3396	43.7	1.2034946391017
9	3417	43.8	1.2256509685181
9	3423	43.9	1.22124891614
9	3429	44	1.2124819738345
9	3435	44.1	1.2262645202049
9	3441	44.2	1.2225102434192
9	3447	44.3	1.2304590401831
9	3453	44.4	1.2195555735501
9	3474	44.5	1.2380573822589
9	3480	44.6	1.2055967443203
9	3486	44.7	1.2374642388275
9	3507	44.8	1.2185800503234
9	3513	44.9	1.2282624804064
9	3519	45	1.2166873865909
9	3525	45.1	1.1999876690259
9	3560	45.2	1.2139368992641
9	3566	45.3	1.2414098187099
9	3572	45.4	1.2243428688274
9	3593	45.5	1.2211189648559
9	3599	45.6	1.2202382998446
9	3605	45.7	1.213960722762
9	3626	45.8	1.2324325690854
9	3632	45.9	1.2396967004931
9	3638	46	1.2282291179326
9	3644	46.1	1.2028356292777
9	3650	46.2	1.238085254917
9	3656	46.3	1.2056679210593
9	3662	46.4	1.22226369162
9	3683	46.5	1.2265492044508
9	3689	46.6	1.2072439524287
9	3695	46.7	1.2268827562178
9	3716	46.8	1.2148970302438
9	3722	46.9	1.2301650585857
9	3728	47	1.2070215654325
9	3734	47.1	1.2170311563288
9	3740	47.2	1.2167591618061
9	3746	47.3	1.2343420959534
9	3752	47.4	1.2146291471784
9	3773	47.5	1.220431494913
9	3779	47.6	1.2393228207549
9	3785	47.7	1.2436091143221
9	3806	47.8	1.2139685680046
9	3812	47.9	1.206365028386
9	3818	48	1.2301749601307
9	3824	48.1	1.2241760336048
9	3830	48.2	1.211693795256
9	3836	48.3	1.2309004425326
9	3842	48.4	1.2075563591037
9	3863	48.5	1.2255821542416
9	3869	48.6	1.2140753076426
9	3875	48.7	1.2099475041873
9	3896	48.8	1.214472013833
9	3902	48.9	1.2461994980608
9	3908	49	1.2240362914391
9	3914	49.1	1.2354266866155
9	3920	49.2	1.2521827862578
9	3926	49.3	1.235157217923
9	3932	49.4	1.2436364498807
9	3953	49.5	1.2151161891168
9	3959	49.6	1.2553672982869
9	3965	49.7	1.2102932689805
9	3986	49.8	1.240122910002
9	3992	49.9	1.2404749198237
9	3998	50	1.2578846271064
9	4004	50.1	1.250124797167
9	4039	50.2	1.2398203896253
9	4045	50.3	1.2136591318129
9	4051	50.4	1.2554766061349
9	4072	50.5	1.2133491440846
9	4078	50.6	1.2171978319287
9	4084	50.7	1.2382608841161
9	4105	50.8	1.2450790743062
9	4111	50.9	1.2503156181201
9	4117	51	1.2313145712384
9	4123	51.1	1.2613571790465
9	4129	51.2	1.2629633111991
9	4135	51.3	1.2422792353788
9	4141	51.4	1.2613723562328
9	4162	51.5	1.2524458472653
9	4168	51.6	1.2545620786861
9	4174	51.7	1.2534114795659
9	4195	51.8	1.2603558453619
9	4201	51.9	1.2672758604452
9	4207	52	1.2624932242122
9	4213	52.1	1.2363076892336
9	4219	52.2	1.217607961496
9	4225	52.3	1.2167664517531
9	4231	52.4	1.2477224605794
9	4252	52.5	1.2612874445771
9	4258	52.6	1.2363042867134
9	4264	52.7	1.2444932303235
9	4285	52.8	1.2179664736247
9	4291	52.9	1.267767730939
9	4297	53	1.2295583603612
9	4303	53.1	1.2564771074697
9	4309	53.2	1.25951079919
9	4315	53.3	1.2370539724855
9	4321	53.4	1.2600009138768
9	4342	53.5	1.2375008986394
9	4348	53.6	1.2458387808702
9	4354	53.7	1.2512621328089
9	4375	53.8	1.2444274654343
9	4381	53.9	1.2594901143785
9	4387	54	1.2367206484225
9	4393	54.1	1.2530631019403
9	4399	54.2	1.2564601161142
9	4405	54.3	1.230788728819
9	4411	54.4	1.2255227462713
9	4432	54.5	1.2746439383491
9	4438	54.6	1.2648422453423
9	4444	54.7	1.2588350474445
9	4465	54.8	1.2329688587475
9	4471	54.9	1.2234756410911
9	4477	55	1.2244117246251
9	4483	55.1	1.2280288096705
9	4518	55.2	1.2624139216189
9	4524	55.3	1.2235304580722
9	4530	55.4	1.2655641221931
9	4551	55.5	1.2742526070227
9	4557	55.6	1.2266889218491
9	4563	55.7	1.2676281968347
9	4584	55.8	1.2420169066983
9	4590	55.9	1.2784284854146
9	4596	56	1.2403815610925
9	4602	56.1	1.2318546043637
9	4608	56.2	1.2670166281481
9	4614	56.3	1.2613327040607
9	4620	56.4	1.2620111640652
9	4641	56.5	1.2406622879171
9	4647	56.6	1.270534221972
9	4653	56.7	1.2749128814415
9	4674	56.8	1.2592172441846
9	4680	56.9	1.2680743246709
9	4686	57	1.2370792990706
9	4692	57.1	1.2725827037892
9	4698	57.2	1.2574486211203
9	4704	57.3	1.2317404032043
9	4710	57.4	1.2500021627136
9	4731	57.5	1.2364084956165
9	4737	57.6	1.2321658411226
9	4743	57.7	1.243409875484
9	4764	57.8	1.2465851758615
9	4770	57.9	1.2308335268
9	4776	58	1.2292830609648
9	4782	58.1	1.2615102858522
9	4788	58.2	1.2846165986751
9	4794	58.3	1.2719710941849
9	4800	58.4	1.280893409202
9	4821	58.5	1.2654934791951
9	4827	58.6	1.2831751277551
9	4833	58.7	1.2551169103336
9	4854	58.8	1.2687811920412
9	4860	58.9	1.2380386417298
9	4866	59	1.2337025857355
9	4872	59.1	1.2592820772587
9	4878	59.2	1.2761562964774
9	4884	59.3	1.2572286813767
9	4890	59.4	1.2388591459778
9	4911	59.5	1.2688987876343
9	4917	59.6	1.2603535231823
9	4923	59.7	1.2778883175545
9	4944	59.8	1.2670300618896
9	4950	59.9	1.2706975497243
9	4956	60	1.2805956015026
9	4962	60.1	1.2650924193192
9	4997	60.2	1.2775795749167
9	5003	60.3	1.2741229253673
9	5009	60.4	1.265018999569
9	5030	60.5	1.2511797531815
9	5036	60.6	1.2774873382114
9	5042	60.7	1.2408010867044
9	5063	60.8	1.2447208578535
9	5069	60.9	1.2960473086115
9	5075	61	1.2837544413908
9	5081	61.1	1.2720484223925
9	5087	61.2	1.2941276546771
9	5093	61.3	1.2791971002781
9	5099	61.4	1.2546147405404
9	5120	61.5	1.2585656644289
9	5126	61.6	1.2624681607842
9	5132	61.7	1.257047363948
9	5153	61.8	1.2896768976762
9	5159	61.9	1.281407730175
9	5165	62	1.2602529667248
9	5171	62.1	1.2473512120436
9	5177	62.2	1.2690734637298
9	5183	62.3	1.2862635174779
9	5189	62.4	1.3031817148822
9	5210	62.5	1.2595356685102
9	5216	62.6	1.3055718695752
9	5222	62.7	1.2823693349762
9	5243	62.8	1.2724166068308
9	5249	62.9	1.2470077663901
9	5255	63	1.3017948174353
9	5261	63.1	1.2815363716298
9	5267	63.2	1.3072050633027
9	5273	63.3	1.2867566242921
9	5279	63.4	1.2685911224881
9	5300	63.5	1.2916793706408
9	5306	63.6	1.2968048110356
9	5312	63.7	1.303666456236
9	5333	63.8	1.2732664547373
9	5339	63.9	1.2655821802517
9	5345	64	1.2673262163001
9	5351	64.1	1.2488857850732
9	5357	64.2	1.3127390827674
9	5363	64.3	1.2698024885868
9	5369	64.4	1.273179531383
9	5390	64.5	1.2742097145576
9	5396	64.6	1.2490851709604
9	5402	64.7	1.3134087191557
9	5423	64.8	1.2677310269228
9	5429	64.9	1.2599176053524
9	5435	65	1.2807605759459
9	5441	65.1	1.29310888486
9	5476	65.2	1.2622185947212
9	5482	65.3	1.309977109454
9	5488	65.4	1.2868415623315
9	5509	65.5	1.2818201075932
9	5515	65.6	1.2700980243561
9	5521	65.7	1.3120411498976
9	5542	65.8	1.3031747388691
9	5548	65.9	1.290985961802
9	5554	66	1.2765128034363
9	5560	66.1	1.2583546965237
9	5566	66.2	1.277116645566
9	5572	66.3	1.3113301006005
9	5578	66.4	1.2525296281929
9	5599	66.5	1.2601518437317
9	5605	66.6	1.286097898118
9	5611	66.7	1.2569411789478
9	5632	66.8	1.2837383359368
9	5638	66.9	1.2571550231038
9	5644	67	1.2637611255754
9	5650	67.1	1.2541222545987
9	5656	67.2	1.2575487439722
9	5662	67.3	1.3199415650371
9	5668	67.4	1.3108076595362
9	5689	67.5	1.2961527732927
9	5695	67.6	1.2565566712598
9	5701	67.7	1.3029280849043
9	5722	67.8	1.3133695079012
9	5728	67.9	1.2620727891683
9	5734	68	1.2935653579107
9	5740	68.1	1.2608872315127
9	5746	68.2	1.3145198036881
9	5752	68.3	1.2790852914251
9	5758	68.4	1.2951742956367
9	5779	68.5	1.3218062746413
9	5785	68.6	1.2776040276924
9	5791	68.7	1.3102992384046
9	5812	68.8	1.3259346785466
9	5818	68.9	1.325159477375
9	5824	69	1.3257663622724
9	5830	69.1	1.2644163214571
9	5836	69.2	1.2767406978627
9	5842	69.3	1.2653104940634
9	5848	69.4	1.2818789051701
9	5869	69.5	1.2926154519586
9	5875	69.6	1.3094331531597
9	5881	69.7	1.2588151515302
9	5902	69.8	1.3056418863156
9	5908	69.9	1.2980452081602
9	5914	70	1.3052247651234
9	5920	70.1	1.2610887845769
9	5955	70.2	1.3207703111539
9	5961	70.3	1.3099319333851
9	5967	70.4	1.2841196360483
9	5988	70.5	1.3303916779398
9	5994	70.6	1.2903209815346
9	6000	70.7	1.3002669063702
9	6021	70.8	1.3151445925723
9	6027	70.9	1.3190673786432
9	6033	71	1.2987561096829
9	6039	71.1	1.310136264835
9	6045	71.2	1.3038455287153
9	6051	71.3	1.3132248310288
9	6057	71.4	1.2656208839022
9	6078	71.5	1.3292174214969
9	6084	71.6	1.3326381676022
9	6090	71.7	1.3144200912885
9	6111	71.8	1.2958937897076
9	6117	71.9	1.2909219184184
9	6123	72	1.3112223626718
9	6129	72.1	1.2653826233731
9	6135	72.2	1.3151088503981
9	6141	72.3	1.2870757871765
9	6147	72.4	1.2936937683958
9	6168	72.5	1.2803820267066
9	6174	72.6	1.2679117217907
9	6180	72.7	1.2745833985501
9	6201	72.8	1.2843011316779
9	6207	72.9	1.2895559526551
9	6213	73	1.3178105189772
9	6219	73.1	1.3328488531421
9	6225	73.2	1.3400905108273
9	6231	73.3	1.3267675875223
9	6237	73.4	1.3123932510499
9	6258	73.5	1.3057332675199
9	6264	73.6	1.2863553352696
9	6270	73.7	1.271943427419
9	6291	73.8	1.3380047707529
9	6297	73.9	1.3394580197978
9	6303	74	1.3019717187818
9	6309	74.1	1.2899293140719
9	6315	74.2	1.2819629233861
9	6321	74.3	1.2751245307683
9	6327	74.4	1.271402059023
9	6348	74.5	1.3175500936414
9	6354	74.6	1.3194887533607
9	6360	74.7	1.3383977120534
9	6381	74.8	1.2962060554159
9	6387	74.9	1.2986350792622
9	6393	75	1.2824804037005
9	6399	75.1	1.3436258895853
9	6434	75.2	1.3121808143724
9	6440	75.3	1.3058212162815
9	6446	75.4	1.3333501216776
9	6467	75.5	1.3397241496528
9	6473	75.6	1.284618471182
9	6479	75.7	1.3493539153548
9	6500	75.8	1.3166557538457
9	6506	75.9	1.3457868262743
9	6512	76	1.3186640413213
9	6518	76.1	1.2765061832611
9	6524	76.2	1.3217426921407
9	6530	76.3	1.2868067466532
9	6536	76.4	1.3472397689701
9	6557	76.5	1.3352681955077
9	6563	76.6	1.3248967735098
9	6569	76.7	1.3256159383609
9	6590	76.8	1.303678576166
9	6596	76.9	1.3307672383459
9	6602	77	1.3007702012458
9	6608	77.1	1.3070880620871
9	6614	77.2	1.327139969199
9	6620	77.3	1.3248359205321
9	6626	77.4	1.3100517159691
9	6647	77.5	1.3555309751576
9	6653	77.6	1.2935681081902
9	6659	77.7	1.3077222302138
9	6680	77.8	1.3018567821687
9	6686	77.9	1.317808446606
9	6692	78	1.3537641579952
9	6698	78.1	1.3297055384121
9	6704	78.2	1.3300691472736
9	6710	78.3	1.3375545338763
9	6716	78.4	1.3625755257021
9	6737	78.5	1.3035323733523
9	6743	78.6	1.3567362953588
9	6749	78.7	1.3152840488601
9	6770	78.8	1.3073118478727
9	6776	78.9	1.3132900293364
9	6782	79	1.2859930409917
9	6788	79.1	1.3587406843186
9	6794	79.2	1.2943050011451
9	6800	79.3	1.3658273641726
9	6806	79.4	1.3232768051952
9	6827	79.5	1.334754948467
9	6833	79.6	1.3248639720513
9	6839	79.7	1.3388251933791
9	6860	79.8	1.3542787141487
9	6866	79.9	1.3696651874939
9	6872	80	1.3272185877497
9	6878	80.1	1.2994572455181
9	6913	80.2	1.3401762021586
9	6919	80.3	1.3536507267977
9	6925	80.4	1.3665943998447
9	6946	80.5	1.3668571073151
9	6952	80.6	1.3556210558581
9	6958	80.7	1.3668179308761
9	6979	80.8	1.3529704682217
9	6985	80.9	1.3710056478491
9	6991	81	1.3717485738314
9	6997	81.1	1.3025362257903
9	7003	81.2	1.363998079634
9	7009	81.3	1.3293383218729
9	7015	81.4	1.310660690833
9	7036	81.5	1.3389251249344
9	7042	81.6	1.3662553752403
9	7048	81.7	1.3627407116456
9	7069	81.8	1.3424436503026
9	7075	81.9	1.3342940594198
9	7081	82	1.35061352099
9	7087	82.1	1.3123005177538
9	7093	82.2	1.3151564089119
9	7099	82.3	1.299500209862
9	7105	82.4	1.3802671233971
9	7126	82.5	1.3028953063468
9	7132	82.6	1.3482587343557
9	7138	82.7	1.3048437898284
9	7159	82.8	1.32182336232
9	7165	82.9	1.2952552532112
9	7171	83	1.3158320078252
9	7177	83.1	1.3516563663805
9	7183	83.2	1.3397137788124
9	7189	83.3	1.351346026633
9	7195	83.4	1.3528082681388
9	7216	83.5	1.3627115417241
9	7222	83.6	1.3417798489347
9	7228	83.7	1.3251495197164
9	7249	83.8	1.3623002208396
9	7255	83.9	1.3401724552925
9	7261	84	1.3778218612585
9	7267	84.1	1.3745610309945
9	7273	84.2	1.385601337883
9	7279	84.3	1.3010254307577
9	7285	84.4	1.3903152774879
9	7306	84.5	1.3748673404495
9	7312	84.6	1.3351507643435
9	7318	84.7	1.3847827554039
9	7339	84.8	1.3109461839896
9	7345	84.9	1.3260971783943
9	7351	85	1.3033104503589
9	7357	85.1	1.3460247831244
9	7387	85.2	1.3656859172243
9	7393	85.3	1.3428774374616
9	7399	85.4	1.3075222676622
9	7420	85.5	1.3458953721314
9	7426	85.6	1.3699760448224
9	7432	85.7	1.3132197312207
9	7453	85.8	1.3607316402054
9	7459	85.9	1.3960684692565
9	7465	86	1.3735585640092
9	7471	86.1	1.3674157282218
9	7477	86.2	1.316741703661
9	7483	86.3	1.3546926993432
9	7489	86.4	1.3563673372292
9	7510	86.5	1.367040252355
9	7516	86.6	1.3157252238125
9	7522	86.7	1.3096816195925
9	7543	86.8	1.305262316652
9	7549	86.9	1.363749895416
9	7555	87	1.3080426423348
9	7561	87.1	1.3246399093413
9	7567	87.2	1.335827544028
9	7573	87.3	1.3771502592727
9	7579	87.4	1.3804070850229
9	7600	87.5	1.3858045453536
9	7606	87.6	1.3137677351768
9	7612	87.7	1.3741544125417
9	7633	87.8	1.3593371974089
9	7639	87.9	1.355759629465
9	7645	88	1.3286901905846
9	7651	88.1	1.3224524901966
9	7657	88.2	1.3906292983447
9	7663	88.3	1.3633800113382
9	7669	88.4	1.3234824620797
9	7690	88.5	1.3259733505247
9	7696	88.6	1.3954928130472
9	7702	88.7	1.3909044998223
9	7723	88.8	1.3771039661897
9	7729	88.9	1.3999494560254
9	7735	89	1.3664417587961
9	7741	89.1	1.397909440535
9	7747	89.2	1.3533300161343
9	7753	89.3	1.3852205932734
9	7759	89.4	1.3513028033613
9	7780	89.5	1.3987748464085
9	7786	89.6	1.3146914701568
9	7792	89.7	1.3189729078342
9	7813	89.8	1.372375797828
9	7819	89.9	1.3875985158309
9	7825	90	1.3873219933214
9	7831	90.1	1.364708195641
9	7861	90.2	1.4091706076512
9	7867	90.3	1.3501042552879
9	7873	90.4	1.3733985324262
9	7894	90.5	1.3768830386609
9	7900	90.6	1.3341248911807
9	7906	90.7	1.3442607266171
9	7927	90.8	1.319913371728
9	7933	90.9	1.3802166679044
9	7939	91	1.3259725768429
9	7945	91.1	1.3388071494722
9	7951	91.2	1.3803380035159
9	7957	91.3	1.3542126213458
9	7963	91.4	1.3879713033074
9	7984	91.5	1.3294460856234
9	7990	91.6	1.4063433189149
9	7996	91.7	1.3968832980569
9	8017	91.8	1.4004311685511
9	8023	91.9	1.3786911424419
9	8029	92	1.3443488601516
9	8035	92.1	1.366673809441
9	8041	92.2	1.3709703963134
9	8047	92.3	1.4209886412754
9	8053	92.4	1.378320399968
9	8074	92.5	1.4157479327748
9	8080	92.6	1.4016041304335
9	8086	92.7	1.3278577842317
9	8107	92.8	1.4014906737688
9	8113	92.9	1.3359291139544
9	8119	93	1.3417059268464
9	8125	93.1	1.4081007255553
9	8131	93.2	1.3626284425259
9	8137	93.3	1.4135061436569
9	8143	93.4	1.3508001673653
9	8164	93.5	1.3603166669601
9	8170	93.6	1.3424819582727
9	8176	93.7	1.3770402639444
9	8197	93.8	1.332227637872
9	8203	93.9	1.422128872164
9	8209	94	1.3974780903165
9	8215	94.1	1.3539841534555
9	8221	94.2	1.3851102586466
9	8227	94.3	1.4111250719481
9	8233	94.4	1.4186204363759
9	8254	94.5	1.3448329319669
9	8260	94.6	1.3810120780141
9	8266	94.7	1.3384348120058
9	8287	94.8	1.354127933841
9	8293	94.9	1.388281306246
9	8299	95	1.3924938890112
9	8305	95.1	1.3779410591549
9	8335	95.2	1.3388950594536
9	8341	95.3	1.3549522544778
9	8347	95.4	1.4324641113683
9	8368	95.5	1.3602638714473
9	8374	95.6	1.3366168083773
9	8380	95.7	1.3587742810585
9	8401	95.8	1.4155089145926
9	8407	95.9	1.3835370486064
9	8413	96	1.4203989592248
9	8419	96.1	1.3977156287671
9	8425	96.2	1.3365232748929
9	8431	96.3	1.3380287629018
9	8437	96.4	1.406388630391
9	8458	96.5	1.400821206485
9	8464	96.6	1.3733814938731
9	8470	96.7	1.3347913647748
9	8491	96.8	1.4221634663527
9	8497	96.9	1.411065513328
9	8503	97	1.34530345835
9	8509	97.1	1.3863974046445
9	8515	97.2	1.3429323516865
9	8521	97.3	1.4198248099702
9	8527	97.4	1.3829362953949
9	8548	97.5	1.4055436582981
9	8554	97.6	1.4070684046861
9	8560	97.7	1.3934187767789
9	8581	97.8	1.3952874662714
9	8587	97.9	1.4038999164406
9	8593	98	1.3437239423701
9	8599	98.1	1.363677890133
9	8605	98.2	1.3642960624924
9	8611	98.3	1.4121303082681
9	8617	98.4	1.3812260020789
9	8638	98.5	1.3595125129961
9	8644	98.6	1.3578524622644
9	8650	98.7	1.4072609770884
9	8671	98.8	1.3610603621494
9	8677	98.9	1.3650230715592
9	8683	99	1.4303346560741
9	8689	99.1	1.3514401069118
9	8695	99.2	1.3981185845143
9	8701	99.3	1.3935364724222
9	8707	99.4	1.39806533991
9	8728	99.5	1.385268740782
9	8734	99.6	1.3796668658542
9	8740	99.7	1.393481703448
9	8761	99.8	1.3531030164179
9	8767	99.9	1.3795812795014
9	8773	100	1.4048556721046
9	8779	100.1	1.4035735251067
9	8809	100.2	1.3602664063935
9	8815	100.3	1.4117058142938
9	8821	100.4	1.4273722050502
9	8842	100.5	1.4449055896251
9	8848	100.6	1.3545116883645
9	8854	100.7	1.3498459239426
9	8875	100.8	1.4389947681568
9	8881	100.9	1.4156604364463
9	8887	101	1.4339626691556
9	8893	101.1	1.4412551558941
9	8899	101.2	1.3538131776408
9	8905	101.3	1.4486450497059
9	8911	101.4	1.3453396226916
9	8932	101.5	1.44491980308
9	8938	101.6	1.3590278330917
9	8944	101.7	1.3926029558629
9	8965	101.8	1.4153280454169
9	8971	101.9	1.4186631844096
9	8977	102	1.3721058478888
9	8983	102.1	1.4224452861274
9	8989	102.2	1.384013181011
9	8995	102.3	1.400128073899
9	9001	102.4	1.404127103174
9	9022	102.5	1.3571201968159
9	9028	102.6	1.3966020134174
9	9034	102.7	1.3658857509536
9	9055	102.8	1.377524124408
9	9061	102.9	1.4561208591063
9	9067	103	1.3728486184458
9	9073	103.1	1.4366136460564
9	9079	103.2	1.3585749178271
9	9085	103.3	1.4572242366399
9	9091	103.4	1.4246041585772
9	9112	103.5	1.4519390032526
9	9118	103.6	1.4092838807493
9	9124	103.7	1.3699346226087
9	9145	103.8	1.4302352496724
9	9151	103.9	1.4477712320819
9	9157	104	1.4276272382116
9	9163	104.1	1.3720590246853
9	9169	104.2	1.4502757674247
9	9175	104.3	1.4408058074123
9	9181	104.4	1.4598420978468
9	9202	104.5	1.3862806343279
9	9208	104.6	1.4226720884946
9	9214	104.7	1.4329536780701
9	9235	104.8	1.3857520904913
9	9241	104.9	1.4307016775252
9	9247	105	1.3852626198736
9	9253	105.1	1.3751893575129
9	9283	105.2	1.4453857083849
9	9289	105.3	1.3571557599203
9	9295	105.4	1.452487192684
9	9316	105.5	1.4379759193921
9	9322	105.6	1.4515887287753
9	9328	105.7	1.432616496952
9	9349	105.8	1.417165105398
9	9355	105.9	1.4125310858276
9	9361	106	1.3736150541156
9	9367	106.1	1.3694596359929
9	9373	106.2	1.4488415242094
9	9379	106.3	1.4015832295534
9	9385	106.4	1.4626149657715
9	9406	106.5	1.4219003711137
9	9412	106.6	1.4385558115067
9	9418	106.7	1.4397353314365
9	9439	106.8	1.4203718740569
9	9445	106.9	1.3911619366521
9	9451	107	1.4704197879775
9	9457	107.1	1.3740168015681
9	9463	107.2	1.3913776201376
9	9469	107.3	1.4585435416816
9	9475	107.4	1.3675197204946
9	9496	107.5	1.4195366805267
9	9502	107.6	1.3605496904621
9	9508	107.7	1.4570749243662
9	9529	107.8	1.4169591225864
9	9535	107.9	1.4467903482931
9	9541	108	1.4456194433517
9	9547	108.1	1.4114084868724
9	9553	108.2	1.3652508758934
9	9559	108.3	1.3763134515205
9	9565	108.4	1.3721332134966
9	9586	108.5	1.3822712094312
9	9592	108.6	1.3185628442138
9	9598	108.7	1.4142321696625
9	9619	108.8	1.316378494115
9	9625	108.9	1.3670813412653
9	9631	109	1.4373250670029
9	9637	109.1	1.2952600601777
9	9643	109.2	1.4542044619409
9	9649	109.3	1.3251591102904
9	9655	109.4	1.3738536414578
9	9676	109.5	1.3290875304376
9	9682	109.6	1.3346679471665
9	9688	109.7	1.4396992320266
9	9709	109.8	1.3122369777942
9	9715	109.9	1.3112950270176
9	9721	110	1.4481088554861
9	9727	110.1	1.3084034471382
9	9757	110.2	1.3725617220857
9	9763	110.3	1.4329697916127
9	9769	110.4	1.306413915612
9	9790	110.5	1.3343264265483
9	9796	110.6	1.4428238462949
9	9802	110.7	1.2617560558615
9	9823	110.8	1.4057279525349
9	9829	110.9	1.4217019832685
9	9835	111	1.3392868558938
9	9841	111.1	1.2745128876417
9	9847	111.2	1.4071224287463
9	9853	111.3	1.4198948552953
9	9859	111.4	1.3409025481989
9	9880	111.5	1.3421303767056
9	9886	111.6	1.4152419063886
9	9892	111.7	1.3154838683305
9	9913	111.8	1.3531064537073
9	9919	111.9	1.3922150825141
9	9925	112	1.3209037865865
9	9931	112.1	1.3425273330013
9	9937	112.2	1.4249352649719
9	9943	112.3	1.3161104031497
9	9949	112.4	1.3600932513237
9	9970	112.5	1.3250701825458
9	9976	112.6	1.3828029740488
9	9982	112.7	1.3538504402136
9	10003	112.8	1.4055645391377
9	10009	112.9	1.3993925768261
9	10015	113	1.2647313889653
9	10021	113.1	1.4670573603196
9	10027	113.2	1.3213029280013
9	10033	113.3	1.4113085635387
9	10039	113.4	1.2568971738243
9	10060	113.5	1.3596806276142
9	10066	113.6	1.3918950612869
9	10072	113.7	1.407035376909
9	10093	113.8	1.3741222283667
9	10099	113.9	1.3612857323137
9	10105	114	1.3793030234179
9	10111	114.1	1.3144867676384
9	10117	114.2	1.40892699815
9	10123	114.3	1.3415089268328
9	10129	114.4	1.3250964024411
9	10150	114.5	1.3502128646161
9	10156	114.6	1.4474739994322
9	10162	114.7	1.3136480512317
9	10183	114.8	1.3356705059776
9	10189	114.9	1.3380829689164
9	10195	115	1.4079813745097
9	10201	115.1	1.3028154825025
9	10231	115.2	1.4473363689686
9	10237	115.3	1.3931200106748
9	10243	115.4	1.3058709153094
9	10264	115.5	1.3900225323249
9	10270	115.6	1.294009432967
9	10276	115.7	1.4337946723957
9	10297	115.8	1.3532001187638
9	10303	115.9	1.3044904977504
9	10309	116	1.3715079281684
9	10315	116.1	1.3813479951379
9	10321	116.2	1.3446824099442
9	10327	116.3	1.3969880420939
9	10333	116.4	1.412549782349
9	10354	116.5	1.3620126805927
9	10360	116.6	1.302293016088
9	10366	116.7	1.4142584827826
9	10387	116.8	1.366600754511
9	10393	116.9	1.2522374501483
9	10399	117	1.3750864500849
9	10405	117.1	1.4478281265283
9	10411	117.2	1.380986212718
9	10417	117.3	1.249050601307
9	10423	117.4	1.4424820990646
9	10444	117.5	1.3737782053945
9	10450	117.6	1.3015241271053
9	10456	117.7	1.4328758166813
9	10477	117.8	1.3438439251564
9	10483	117.9	1.2767678678954
9	10489	118	1.4027865552288
9	10495	118.1	1.3767588323215
9	10501	118.2	1.377308564804
9	10507	118.3	1.3170122819756
9	10513	118.4	1.4389900659615
9	10534	118.5	1.2628276491307
9	10540	118.6	1.3750492339902
9	10546	118.7	1.3917080769074
9	10567	118.8	1.4319752156964
9	10573	118.9	1.2831890003001
9	10579	119	1.3366927282871
9	10585	119.1	1.4092480825569
9	10591	119.2	1.3830648602151
9	10597	119.3	1.3908648963751
9	10603	119.4	1.2859742661005
9	10624	119.5	1.3466074198262
9	10630	119.6	1.4572378911467
9	10636	119.7	1.2830719091293
9	10657	119.8	1.4521367478634
9	10663	119.9	1.2479610576298
9	10669	120	1.4047715441013
9	10675	120.1	1.3699798788448
9	10705	120.2	1.3934727585858
9	10711	120.3	1.286058955782
9	10717	120.4	1.4424961799376
9	10738	120.5	1.2946527556657
9	10744	120.6	1.3433273608257
9	10750	120.7	1.3865834749856
9	10771	120.8	1.3942890183046
9	10777	120.9	1.4172800321625
9	10783	121	1.313569117346
9	10789	121.1	1.3666180198989
9	10795	121.2	1.3909968978022
9	10801	121.3	1.3359308492242
9	10807	121.4	1.3704768180922
9	10828	121.5	1.3860352782931
9	10834	121.6	1.3290717951586
9	10840	121.7	1.3841092660632
9	10861	121.8	1.3312508776689
9	10867	121.9	1.4213955706136
9	10873	122	1.2574736647665
9	10879	122.1	1.373108383407
9	10885	122.2	1.3941932725326
9	10891	122.3	1.3262820740336
9	10897	122.4	1.3489165274425
9	10918	122.5	1.4653143673326
9	10924	122.6	1.2997812017315
9	10930	122.7	1.3180421847462
9	10951	122.8	1.3634177191302
9	10957	122.9	1.4086988743586
9	10963	123	1.419935976494
9	10969	123.1	1.3076414221784
9	10975	123.2	1.4327718797021
9	10981	123.3	1.3389270374438
9	10987	123.4	1.2711504652213
9	11008	123.5	1.4379100013759
9	11014	123.6	1.3253346861093
9	11020	123.7	1.4056506640298
9	11041	123.8	1.282007968624
9	11047	123.9	1.3887282102672
9	11053	124	1.4106021831694
9	11059	124.1	1.3067145349465
9	11065	124.2	1.4450431741472
9	11071	124.3	1.3283173254036
9	11077	124.4	1.3832338494237
9	11098	124.5	1.3067141828314
9	11104	124.6	1.4327207517561
9	11110	124.7	1.3270596988823
9	11131	124.8	1.3770920423864
9	11137	124.9	1.3348180539039
9	11143	125	1.3813928036827
9	11149	125.1	1.3194586036917
9	11179	125.2	1.4448907055723
9	11185	125.3	1.2890568744163
9	11191	125.4	1.4112093325747
9	11212	125.5	1.3580059991
9	11218	125.6	1.298357113773
9	11224	125.7	1.3435408901411
9	11245	125.8	1.4395256798594
9	11251	125.9	1.3009072575374
9	11257	126	1.4497710145992
9	11263	126.1	1.2986147418037
9	11269	126.2	1.3482496899569
9	11275	126.3	1.4343429948212
9	11281	126.4	1.330002141982
9	11302	126.5	1.3061174600235
9	11308	126.6	1.4577605291373
9	11314	126.7	1.3730375976877
9	11335	126.8	1.2935181478168
9	11341	126.9	1.3811748232171
9	11347	127	1.318616222053
9	11353	127.1	1.347231451025
9	11359	127.2	1.4377657025931
9	11365	127.3	1.3517867766769
9	11371	127.4	1.3506975039471
9	11392	127.5	1.3501609106964
9	11398	127.6	1.3146164063067
9	11404	127.7	1.3968406603827
9	11425	127.8	1.3995912784684
9	11431	127.9	1.3777504460388
9	11437	128	1.2803379566766
9	11443	128.1	1.4601399650582
9	11449	128.2	1.2919931204164
9	11455	128.3	1.3375646358775
9	11461	128.4	1.393756868446
9	11482	128.5	1.3916035019875
9	11488	128.6	1.3896264918077
9	11494	128.7	1.3422572011676
9	11515	128.8	1.3215180008064
9	11521	128.9	1.3692892844587
9	11527	129	1.3287455469233
9	11533	129.1	1.3696208508214
9	11539	129.2	1.368397794711
9	11545	129.3	1.3507819112721
9	11551	129.4	1.4390838260218
9	11572	129.5	1.3513228574364
9	11578	129.6	1.3612891196467
9	11584	129.7	1.3407055186275
9	11605	129.8	1.3494101308447
9	11611	129.9	1.4085337693211
9	11617	130	1.3949395019673
9	11623	130.1	1.3168026053214
9	11653	130.2	1.3734990984174
9	11659	130.3	1.2860159363332
9	11665	130.4	1.3687432063739
9	11686	130.5	1.3656355477265
9	11692	130.6	1.3873355097049
9	11698	130.7	1.3997314494549
9	11719	130.8	1.3378221760424
9	11725	130.9	1.3302517590033
9	11731	131	1.4490279971817
9	11737	131.1	1.2777941521439
9	11743	131.2	1.4542844579649
9	11749	131.3	1.2690330113856
9	11755	131.4	1.3633675020185
9	11776	131.5	1.453874977502
9	11782	131.6	1.2930620187396
9	11788	131.7	1.3774823679737
9	11809	131.8	1.4027224101957
9	11815	131.9	1.3652483263087
9	11821	132	1.2871392337535
9	11827	132.1	1.3871768429602
9	11833	132.2	1.312259155552
9	11839	132.3	1.3622959637539
9	11845	132.4	1.3609468354743
9	11866	132.5	1.4679801405897
9	11872	132.6	1.263648503497
9	11878	132.7	1.446160782446
9	11899	132.8	1.3367742536857
9	11905	132.9	1.3263312902632
9	11911	133	1.4293390243348
9	11917	133.1	1.3187802525693
9	11923	133.2	1.4084774446181
9	11929	133.3	1.3724577500362
9	11935	133.4	1.3612587786833
9	11956	133.5	1.3335206629476
9	11962	133.6	1.405278991645
9	11968	133.7	1.3119220338138
9	11989	133.8	1.3335784523703
9	11995	133.9	1.3941326893346
9	12001	134	1.4007586748424
9	12007	134.1	1.3654966688023
9	12013	134.2	1.3366493453045
9	12019	134.3	1.3757603784494
9	12025	134.4	1.2665083851202
9	12046	134.5	1.460704971275
9	12052	134.6	1.2835951046268
9	12058	134.7	1.3888252936299
9	12079	134.8	1.3644579639507
9	12085	134.9	1.3693511770924
9	12091	135	1.3069273154341
9	12097	135.1	1.4357474991824
9	12127	135.2	1.3112927394365
9	12133	135.3	1.3904408327082
9	12139	135.4	1.3817529771452
9	12160	135.5	1.294889493858
9	12166	135.6	1.4054023991899
9	12172	135.7	1.4204356015724
9	12193	135.8	1.3265631017446
9	12199	135.9	1.3185177054905
9	12205	136	1.3729340934163
9	12211	136.1	1.335468609544
9	12217	136.2	1.4417272428663
9	12223	136.3	1.3023129352615
9	12229	136.4	1.3984080010089
9	12250	136.5	1.3487416648576
9	12256	136.6	1.3163452456322
9	12262	136.7	1.3592920805202
9	12283	136.8	1.3764299878089
9	12289	136.9	1.4230562944447
9	12295	137	1.298674074442
9	12301	137.1	1.3923723147311
9	12307	137.2	1.3876263388792
9	12313	137.3	1.4102318640422
9	12319	137.4	1.2739654309172
9	12340	137.5	1.3947346748278
9	12346	137.6	1.3281355518137
9	12352	137.7	1.3669268523038
9	12373	137.8	1.3568302381379
9	12379	137.9	1.4219421958229
9	12385	138	1.302134419328
9	12391	138.1	1.392771534049
9	12397	138.2	1.3715778256952
9	12403	138.3	1.3380909352686
9	12409	138.4	1.4415111627442
9	12430	138.5	1.3529374561678
9	12436	138.6	1.3397213546574
9	12442	138.7	1.2791259120776
9	12463	138.8	1.464252810583
9	12469	138.9	1.3395827076899
9	12475	139	1.3964007155664
9	12481	139.1	1.3288209851031
9	12487	139.2	1.363888393204
9	12493	139.3	1.2868771494
9	12499	139.4	1.3745096928041
9	12520	139.5	1.4182115407074
9	12526	139.6	1.4058699754453
9	12532	139.7	1.2652958874614
9	12553	139.8	1.3829005131759
9	12559	139.9	1.4238793349687
9	12565	140	1.2607338467087
9	12571	140.1	1.4706188831967
9	12601	140.2	1.2700201768241
9	12607	140.3	1.4315726339388
9	12613	140.4	1.3455209908998
9	12634	140.5	1.3189852224291
9	12640	140.6	1.3765671480485
9	12646	140.7	1.3309160241503
9	12667	140.8	1.4005225759943
9	12673	140.9	1.4257423502537
9	12679	141	1.2676479196801
9	12685	141.1	1.3761839375988
9	12691	141.2	1.3692477268825
9	12697	141.3	1.4420146909369
9	12703	141.4	1.3212915478089
9	12724	141.5	1.3902145845671
9	12730	141.6	1.2835602537881
9	12736	141.7	1.3769661869321
9	12757	141.8	1.3403019878246
9	12763	141.9	1.3521722454764
9	12769	142	1.3853994230561
9	12775	142.1	1.3358035859323
9	12781	142.2	1.4080773481024
9	12787	142.3	1.4323273612139
9	12793	142.4	1.3654962296832
9	12814	142.5	1.3230794634984
9	12820	142.6	1.3043838629139
9	12826	142.7	1.3571376463118
9	12847	142.8	1.3508306690014
9	12853	142.9	1.470628149418
9	12859	143	1.3651988681133
9	12865	143.1	1.2577549820875
9	12871	143.2	1.4358269140578
9	12877	143.3	1.3319942298866
9	12883	143.4	1.3111588664236
9	12904	143.5	1.4326008539279
9	12910	143.6	1.3304392092068
9	12916	143.7	1.3944321373294
9	12937	143.8	1.3181301750949
9	12943	143.9	1.3914035145434
9	12949	144	1.3975678058577
9	12955	144.1	1.3585290562998
9	12961	144.2	1.3642004276689
9	12967	144.3	1.3294404470363
9	12973	144.4	1.3417987700363
9	12994	144.5	1.3326261303708
9	13000	144.6	1.393072521798
9	13006	144.7	1.3518366634368
9	13027	144.8	1.4364073848709
9	13033	144.9	1.3378405581406
9	13039	145	1.3577370979145
9	13045	145.1	1.3295655519305
9	13075	145.2	1.4096101223858
9	13081	145.3	1.3616888986499
9	13087	145.4	1.3562175845364
9	13108	145.5	1.3076324004924
9	13114	145.6	1.390438160671
9	13120	145.7	1.4232254124805
9	13141	145.8	1.362346507306
9	13147	145.9	1.3272573445522
9	13153	146	1.3147634123282
9	13159	146.1	1.3717424290836
9	13165	146.2	1.3600346183449
9	13171	146.3	1.3551981957899
9	13177	146.4	1.3689206633809
9	13198	146.5	1.3851662169568
9	13204	146.6	1.3187000588133
9	13210	146.7	1.3650123775202
9	13231	146.8	1.3728955686138
9	13237	146.9	1.3596769415412
9	13243	147	1.3642175152398
9	13249	147.1	1.387924058596
9	13255	147.2	1.3434379975773
9	13261	147.3	1.3949644924677
9	13267	147.4	1.3207911198546
9	13288	147.5	1.3693982157074
9	13294	147.6	1.3475025509777
9	13300	147.7	1.3548750922374
9	13321	147.8	1.4728560045671
9	13327	147.9	1.3062889627232
9	13333	148	1.3097120002407
9	13339	148.1	1.4526626578474
9	13345	148.2	1.378475364601
9	13351	148.3	1.3154443471222
9	13357	148.4	1.3623761066913
9	13378	148.5	1.3504241548987
9	13384	148.6	1.3697768798578
9	13390	148.7	1.3350053497134
9	13411	148.8	1.381246749694
9	13417	148.9	1.3623858414949
9	13423	149	1.3473522382717
9	13429	149.1	1.3798921576435
9	13435	149.2	1.418167440026
9	13441	149.3	1.2721764218604
9	13447	149.4	1.4257921550743
9	13468	149.5	1.2882525014798
9	13474	149.6	1.3936126714551
9	13480	149.7	1.3476913982279
9	13501	149.8	1.4169295794529
9	13507	149.9	1.3815030940939
9	13513	150	1.3027738505737
9	13519	150.1	1.4004193869896
9	13549	150.2	1.3512945832729
9	13555	150.3	1.3118630268011
9	13561	150.4	1.4623846641397
9	13582	150.5	1.2694341389414
9	13588	150.6	1.346603153278
9	13594	150.7	1.4127911465887
9	13615	150.8	1.4062848160371
9	13621	150.9	1.3321801753465
9	13627	151	1.3924510822591
9	13633	151.1	1.3658395907348
9	13639	151.2	1.2610503543315
9	13645	151.3	1.4421209345947
9	13651	151.4	1.3670251859187
9	13672	151.5	1.301634167518
9	13678	151.6	1.3916790365
9	13684	151.7	1.3208055606818
9	13705	151.8	1.3469394421852
9	13711	151.9	1.4734933410962
9	13717	152	1.3551039664526
9	13723	152.1	1.2660060561309
9	13729	152.2	1.450775608104
9	13735	152.3	1.3827685707244
9	13741	152.4	1.2641823021473
9	13762	152.5	1.4575007891381
9	13768	152.6	1.2553865478417
9	13774	152.7	1.3865793137219
9	13795	152.8	1.4053703287449
9	13801	152.9	1.4035922229384
9	13807	153	1.2845629477696
9	13813	153.1	1.379498089352
9	13819	153.2	1.4130716311525
9	13825	153.3	1.3051206516226
9	13831	153.4	1.3587793706375
9	13852	153.5	1.3275733459331
9	13858	153.6	1.4211948538014
9	13864	153.7	1.3558857047566
9	13885	153.8	1.3146089487903
9	13891	153.9	1.442359499506
9	13897	154	1.3605613850418
9	13903	154.1	1.2820387201344
9	13909	154.2	1.4295690090765
9	13915	154.3	1.3144147131087
9	13921	154.4	1.4145551112732
9	13942	154.5	1.3772872900495
9	13948	154.6	1.3516554757981
9	13954	154.7	1.3386152531268
9	13975	154.8	1.3969745235555
9	13981	154.9	1.3011934294061
9	13987	155	1.4416314680234
9	13993	155.1	1.3048594873122
9	14023	155.2	1.3596198689034
9	14029	155.3	1.3940021576627
9	14035	155.4	1.3953998928748
9	14056	155.5	1.3061475386331
9	14062	155.6	1.4167476564647
9	14068	155.7	1.2679392497829
9	14089	155.8	1.3500394267332
9	14095	155.9	1.4450291119515
9	14101	156	1.3823993203795
9	14107	156.1	1.3402671049219
9	14113	156.2	1.3734891970555
9	14119	156.3	1.3853649902849
9	14125	156.4	1.2561164089343
9	14146	156.5	1.3746181806652
9	14152	156.6	1.4211243199866
9	14158	156.7	1.3212399890296
9	14179	156.8	1.3230554825252
9	14185	156.9	1.3845541296756
9	14191	157	1.3667357704087
9	14197	157.1	1.3794240394626
9	14203	157.2	1.3911629497962
9	14209	157.3	1.3365838797427
9	14215	157.4	1.4141410794751
9	14236	157.5	1.3771272757243
9	14242	157.6	1.3197881995998
9	14248	157.7	1.3914075023472
9	14269	157.8	1.3628302407632
9	14275	157.9	1.3231064165589
9	14281	158	1.3991356481398
9	14287	158.1	1.3598734962524
9	14293	158.2	1.3172633119902
9	14299	158.3	1.3767103999856
9	14305	158.4	1.3309391633926
9	14326	158.5	1.3931992812844
9	14332	158.6	1.381333392288
9	14338	158.7	1.3228553404004
9	14359	158.8	1.3809287319317
9	14365	158.9	1.3026826790689
9	14371	159	1.4505098899379
9	14377	159.1	1.3109560104113
9	14383	159.2	1.3246434287982
9	14389	159.3	1.3696188642693
9	14395	159.4	1.4437149125814
9	14416	159.5	1.3061697699639
9	14422	159.6	1.4026212637142
9	14428	159.7	1.317456032177
9	14449	159.8	1.4390296386646
9	14455	159.9	1.2602990606912
9	14461	160	1.4618786842366
9	14467	160.1	1.2961747306057
9	14497	160.2	1.4051868993655
9	14503	160.3	1.3817456184114
9	14509	160.4	1.3379789430245
9	14530	160.5	1.2923965982823
9	14536	160.6	1.4658797422706
9	14542	160.7	1.3725701266259
9	14563	160.8	1.2705103190449
9	14569	160.9	1.3594224229429
9	14575	161	1.4027114602236
9	14581	161.1	1.3050733629297
9	14587	161.2	1.4025031254749
9	14593	161.3	1.3668407888939
9	14599	161.4	1.3331820565232
9	14620	161.5	1.4629817013988
9	14626	161.6	1.3390802893353
9	14632	161.7	1.3516969910559
9	14653	161.8	1.343286893163
9	14659	161.9	1.4015838290808
9	14665	162	1.2737462180735
9	14671	162.1	1.3796921135177
9	14677	162.2	1.3556597593998
9	14683	162.3	1.4446072504017
9	14689	162.4	1.313074150156
9	14710	162.5	1.4086695794274
9	14716	162.6	1.3440114059248
9	14722	162.7	1.284478958509
9	14743	162.8	1.3801179977081
9	14749	162.9	1.3623901979306
9	14755	163	1.3646144823762
9	14761	163.1	1.4044775410674
9	14767	163.2	1.400974133167
9	14773	163.3	1.2607306928664
9	14779	163.4	1.3908209843397
9	14800	163.5	1.3522301618449
9	14806	163.6	1.3607018531394
9	14812	163.7	1.3584765166189
9	14833	163.8	1.4156361865265
9	14839	163.9	1.2957872842422
9	14845	164	1.4184914430757
9	14851	164.1	1.3931772683961
9	14857	164.2	1.3265113569025
9	14863	164.3	1.3468228801464
9	14869	164.4	1.4016577309636
9	14890	164.5	1.3883028712904
9	14896	164.6	1.3203518188497
9	14902	164.7	1.3587543390015
9	14923	164.8	1.3282000168379
9	14929	164.9	1.446922641497
9	14935	165	1.2904143055281
9	14941	165.1	1.425601149243
9	14971	165.2	1.2982176031846
9	14977	165.3	1.4033961212987
9	14983	165.4	1.3017598145499
9	15004	165.5	1.4092929905496
9	15010	165.6	1.3894367573551
9	15016	165.7	1.298701591341
9	15037	165.8	1.3362149224662
9	15043	165.9	1.4039190124421
9	15049	166	1.4228124582848
9	15055	166.1	1.3542096055214
9	15061	166.2	1.3414317955954
9	15067	166.3	1.3483990081077
9	15073	166.4	1.4201445452439
9	15094	166.5	1.3069168946736
9	15100	166.6	1.3633063497655
9	15106	166.7	1.3672025437978
9	15127	166.8	1.3778982665772
9	15133	166.9	1.2842508688484
9	15139	167	1.3973911303054
9	15145	167.1	1.3476804192781
9	15151	167.2	1.3952091437083
9	15157	167.3	1.3805407300368
9	15163	167.4	1.361932566669
9	15184	167.5	1.3743785692178
9	15190	167.6	1.3295153391415
9	15196	167.7	1.325325040385
9	15217	167.8	1.460917666265
9	15223	167.9	1.2766543637338
9	15229	168	1.3584090454054
9	15235	168.1	1.4093719157485
9	15241	168.2	1.3203366996121
9	15247	168.3	1.4052174786025
9	15253	168.4	1.3714726969919
9	15274	168.5	1.3722414408294
9	15280	168.6	1.2939328398107
9	15286	168.7	1.4560785424264
9	15307	168.8	1.3373205304311
9	15313	168.9	1.3550829653095
9	15319	169	1.325551482597
9	15325	169.1	1.3844023031556
9	15331	169.2	1.3338316305506
9	15337	169.3	1.4253105225581
9	15343	169.4	1.3384272034349
9	15364	169.5	1.3400833978752
9	15370	169.6	1.3511806819908
9	15376	169.7	1.4051079639601
9	15397	169.8	1.3636186396008
9	15403	169.9	1.3886010998681
9	15409	170	1.2689001565911
9	15415	170.1	1.4584956757531
9	15445	170.2	1.3224883787492
9	15451	170.3	1.3844180463403
9	15457	170.4	1.3237252146416
9	15478	170.5	1.3046144672771
9	15484	170.6	1.4298978144095
9	15490	170.7	1.3426081064529
9	15511	170.8	1.3617541509436
9	15517	170.9	1.4270763135146
9	15523	171	1.2824362874451
9	15529	171.1	1.3556678013265
9	15535	171.2	1.3674754217562
9	15541	171.3	1.433381535397
9	15547	171.4	1.3255205317701
9	15568	171.5	1.3693576749182
9	15574	171.6	1.3639072007776
9	15580	171.7	1.4009592226693
9	15601	171.8	1.2754465242106
9	15607	171.9	1.4573814661145
9	15613	172	1.3435842121564
9	15619	172.1	1.2981581802725
9	15625	172.2	1.4191583813087
9	15631	172.3	1.2877465411892
9	15637	172.4	1.3919496213111
9	15658	172.5	1.3440873867141
9	15664	172.6	1.4261520311943
9	15670	172.7	1.2990966405913
9	15691	172.8	1.3521002875742
9	15697	172.9	1.3978412816434
9	15703	173	1.4247401479294
9	15709	173.1	1.32612945088
9	15715	173.2	1.3309875640421
9	15721	173.3	1.3205007950251
9	15727	173.4	1.4494206068218
9	15748	173.5	1.3836629224252
9	15754	173.6	1.295949398846
9	15760	173.7	1.3690664579816
9	15781	173.8	1.3787190716984
9	15787	173.9	1.2964252364409
9	15793	174	1.4674308486804
9	15799	174.1	1.2579703652193
9	15805	174.2	1.4731119389698
9	15811	174.3	1.3017889442017
9	15817	174.4	1.3133121303431
9	15838	174.5	1.4207465984583
9	15844	174.6	1.4050337158553
9	15850	174.7	1.2589714052641
9	15871	174.8	1.4247523784022
9	15877	174.9	1.3185044338121
9	15883	175	1.3785003525685
9	15889	175.1	1.3957291507962
9	15919	175.2	1.2928593951613
9	15925	175.3	1.4015280648435
9	15931	175.4	1.3502581366826
9	15952	175.5	1.4513956932488
9	15958	175.6	1.2917034376174
9	15964	175.7	1.3218124496408
9	15985	175.8	1.4473056393243
9	15991	175.9	1.3616114823922
9	15997	176	1.2901137116149
9	16003	176.1	1.3507851073217
9	16009	176.2	1.4316612051742
9	16015	176.3	1.3257367211044
9	16021	176.4	1.3333883031655
9	16042	176.5	1.4615491638166
9	16048	176.6	1.3155522769477
9	16054	176.7	1.3267228610742
9	16075	176.8	1.3783101185156
9	16081	176.9	1.4255608208594
9	16087	177	1.2740365378211
9	16093	177.1	1.3915257841628
9	16099	177.2	1.3222224874169
9	16105	177.3	1.4044021398205
9	16111	177.4	1.3366995334158
9	16132	177.5	1.3414217061271
9	16138	177.6	1.3863668527863
9	16144	177.7	1.3981178649983
9	16165	177.8	1.3507368873804
9	16171	177.9	1.3642637549887
9	16177	178	1.4258305388257
9	16183	178.1	1.3220978999689
9	16189	178.2	1.358061542116
9	16195	178.3	1.3979303742858
9	16201	178.4	1.3733668838509
9	16222	178.5	1.3671500396851
9	16228	178.6	1.3201578694058
9	16234	178.7	1.3763767919826
9	16255	178.8	1.3247840379814
9	16261	178.9	1.3179096440887
9	16267	179	1.4693464255574
9	16273	179.1	1.3148044428959
9	16279	179.2	1.3344147441676
9	16285	179.3	1.4329933713693
9	16291	179.4	1.2988922817053
9	16312	179.5	1.391788082591
9	16318	179.6	1.3146596645026
9	16324	179.7	1.4249573318057
9	16345	179.8	1.3776319812785
9	16351	179.9	1.3646704248665
9	16357	180	1.3158001560117
9	16363	180.1	1.3543367154004
9	16393	180.2	1.4039740487723
9	16399	180.3	1.3224796821975
9	16405	180.4	1.3422503711627
9	16426	180.5	1.418981369402
9	16432	180.6	1.3916175456698
9	16438	180.7	1.2635347373072
9	16459	180.8	1.3607648830577
9	16465	180.9	1.4186493089589
9	16471	181	1.2948087608394
9	16477	181.1	1.3756985001969
9	16483	181.2	1.423918774125
9	16489	181.3	1.3286192177596
9	16495	181.4	1.3858910860849
9	16516	181.5	1.3972889528314
9	16522	181.6	1.3269276827768
9	16528	181.7	1.3104128815758
9	16549	181.8	1.4010446104934
9	16555	181.9	1.3521464908099
9	16561	182	1.3924748643073
9	16567	182.1	1.3848231331639
9	16573	182.2	1.3149816435597
9	16579	182.3	1.364641048549
9	16585	182.4	1.3135887781077
9	16606	182.5	1.4768259759309
9	16612	182.6	1.2553444109902
9	16618	182.7	1.3589059661161
9	16639	182.8	1.4451442823362
9	16645	182.9	1.386211099462
9	16651	183	1.2656599531051
9	16657	183.1	1.4445524449064
9	16663	183.2	1.3350872974544
9	16669	183.3	1.3557176736392
9	16675	183.4	1.3780060519532
9	16696	183.5	1.3502883171879
9	16702	183.6	1.3764583440184
9	16708	183.7	1.3367005563973
9	16729	183.8	1.4211879556737
9	16735	183.9	1.2961101319236
9	16741	184	1.4154357656183
9	16747	184.1	1.2631689814601
9	16753	184.2	1.4022004452614
9	16759	184.3	1.4395833164602
9	16765	184.4	1.3589725624421
9	16786	184.5	1.3348187888614
9	16792	184.6	1.3028652508839
9	16798	184.7	1.443618005626
9	16819	184.8	1.2938118155554
9	16825	184.9	1.3757426836958
9	16831	185	1.3763571616923
9	16837	185.1	1.393871479042
9	16867	185.2	1.3801546067082
9	16873	185.3	1.304726081913
9	16879	185.4	1.3621939155989
9	16900	185.5	1.4229523162582
9	16906	185.6	1.2868552067271
9	16912	185.7	1.3964086550373
9	16933	185.8	1.3480434733589
9	16939	185.9	1.3651692751152
9	16945	186	1.3336629530912
9	16951	186.1	1.3855018581401
9	16957	186.2	1.3789423585305
9	16963	186.3	1.3835441425129
9	16969	186.4	1.3828068682727
9	16990	186.5	1.3389791476295
9	16996	186.6	1.3147903768007
9	17002	186.7	1.4064044758926
9	17023	186.8	1.3117650368408
9	17029	186.9	1.3310917629234
9	17035	187	1.4446270041835
9	17041	187.1	1.3000865296033
9	17047	187.2	1.3765465770008
9	17053	187.3	1.3934192859731
9	17059	187.4	1.3254475389812
9	17080	187.5	1.4139761350532
9	17086	187.6	1.3602091244897
9	17092	187.7	1.3503520773747
9	17113	187.8	1.3597192837414
9	17119	187.9	1.3469652019482
9	17125	188	1.3828734423331
9	17131	188.1	1.3054845041855
9	17137	188.2	1.3891809516449
9	17143	188.3	1.3284482567309
9	17149	188.4	1.42848688107
9	17170	188.5	1.2878346049526
9	17176	188.6	1.3952479038265
9	17182	188.7	1.3554736329827
9	17203	188.8	1.3853165957274
9	17209	188.9	1.3260422397232
9	17215	189	1.4568179853098
9	17221	189.1	1.2802763543441
9	17227	189.2	1.3777591884811
9	17233	189.3	1.3395593597268
9	17239	189.4	1.3576655154564
9	17260	189.5	1.4123711408532
9	17266	189.6	1.3023796243438
9	17272	189.7	1.3801554618042
9	17293	189.8	1.3556385076318
9	17299	189.9	1.4659109053049
9	17305	190	1.2498144096935
9	17311	190.1	1.4460546850935
9	17341	190.2	1.3171983913623
9	17347	190.3	1.3833997253116
9	17353	190.4	1.3437320930739
9	17374	190.5	1.3661306995778
9	17380	190.6	1.3394297221629
9	17386	190.7	1.3888926366706
9	17407	190.8	1.3614287801889
9	17413	190.9	1.3585891388247
9	17419	191	1.4075971859615
9	17425	191.1	1.3064052970566
9	17431	191.2	1.3261779057586
9	17437	191.3	1.3690853020186
9	17443	191.4	1.445862699991
9	17464	191.5	1.2728905377499
9	17470	191.6	1.3800328485198
9	17476	191.7	1.3457973326039
9	17497	191.8	1.3612414668155
9	17503	191.9	1.4237643873257
9	17509	192	1.3430322557539
9	17515	192.1	1.4060038164407
9	17521	192.2	1.3695762110058
9	17527	192.3	1.3336339604499
9	17533	192.4	1.386430297722
9	17554	192.5	1.2898612403539
9	17560	192.6	1.4583984477365
9	17566	192.7	1.3348058418239
9	17587	192.8	1.3760805295706
9	17593	192.9	1.372219495332
9	17599	193	1.3129645796252
9	17605	193.1	1.3207743718334
9	17611	193.2	1.4129629415388
9	17617	193.3	1.3831244931349
9	17623	193.4	1.2880610510556
9	17644	193.5	1.3575520707532
9	17650	193.6	1.4124647580822
9	17656	193.7	1.3440531560915
9	17677	193.8	1.4345980860644
9	17683	193.9	1.3288533069043
9	17689	194	1.3567259060156
9	17695	194.1	1.3485235363003
9	17701	194.2	1.3209968294998
9	17707	194.3	1.3670025831713
9	17713	194.4	1.4591146377966
9	17734	194.5	1.3451230630065
9	17740	194.6	1.3358337959691
9	17746	194.7	1.3462313620432
9	17767	194.8	1.3509823429724
9	17773	194.9	1.4183938606588
9	17779	195	1.2959527958587
9	17785	195.1	1.3388619460782
9	17815	195.2	1.442968883797
9	17821	195.3	1.3243924787228
9	17827	195.4	1.3080983062988
9	17848	195.5	1.4039875682087
9	17854	195.6	1.4290639328685
9	17860	195.7	1.2804953780613
9	17881	195.8	1.3944252183933
9	17887	195.9	1.4103758842092
9	17893	196	1.3139350860957
9	17899	196.1	1.3334440383327
9	17905	196.2	1.4395555009117
9	17911	196.3	1.3337581205301
9	17917	196.4	1.3956965495266
9	17938	196.5	1.3543396716966
9	17944	196.6	1.3746466311651
9	17950	196.7	1.3417077384641
9	17971	196.8	1.3350370148586
9	17977	196.9	1.3217439162986
9	17983	197	1.3750183805359
9	17989	197.1	1.37431016328
9	17995	197.2	1.3142119250493
9	18001	197.3	1.4254424808297
9	18007	197.4	1.3079424333007
9	18028	197.5	1.4322245352696
9	18034	197.6	1.3516954867451
9	18040	197.7	1.3660456046663
9	18061	197.8	1.338400903137
9	18067	197.9	1.3219124986553
9	18073	198	1.3820891090658
9	18079	198.1	1.3543274354297
9	18085	198.2	1.3673442249879
9	18091	198.3	1.3430036871997
9	18097	198.4	1.4636026894413
9	18118	198.5	1.2780632950437
9	18124	198.6	1.3794795308891
9	18130	198.7	1.4397882136213
9	18151	198.8	1.3184463250624
9	18157	198.9	1.372253362425
9	18163	199	1.3703347138179
9	18169	199.1	1.3128406708507
9	18175	199.2	1.3441582547712
9	18181	199.3	1.3876319541982
9	18187	199.4	1.3200879890656
9	18208	199.5	1.3922708573092
9	18214	199.6	1.4345027929575
9	18220	199.7	1.3087974609426
9	18241	199.8	1.3431258061001
9	18247	199.9	1.3522268417171
9	18253	200	1.4561920455679
9	18259	200.1	1.279017634235
9	18289	200.2	1.3494435623647
9	18295	200.3	1.3718222936246
9	18301	200.4	1.3906911897161
9	18322	200.5	1.3690352557605
9	18328	200.6	1.3514429851851
9	18334	200.7	1.3436804211776
9	18355	200.8	1.3359852625195
9	18361	200.9	1.3992199472787
9	18367	201	1.3296843172572
9	18373	201.1	1.384811608041
9	18379	201.2	1.4389661530821
9	18385	201.3	1.3104080342974
9	18391	201.4	1.3884027140951
9	18412	201.5	1.3627479811506
9	18418	201.6	1.3540313951541
9	18424	201.7	1.3675345872642
9	18445	201.8	1.3306677893348
9	18451	201.9	1.3497361111848
9	18457	202	1.4125619152531
9	18463	202.1	1.3794193327939
9	18469	202.2	1.3712638566955
9	18475	202.3	1.3002097352051
9	18481	202.4	1.4095767344591
9	18502	202.5	1.3840561658475
9	18508	202.6	1.2517611564452
9	18514	202.7	1.409469328775
9	18535	202.8	1.4162718662006
9	18541	202.9	1.2720028980026
9	18547	203	1.3453343806862
9	18553	203.1	1.426861654746
9	18559	203.2	1.4116561422343
9	18565	203.3	1.3536403514704
9	18571	203.4	1.3307361303357
9	18592	203.5	1.3016502691459
9	18598	203.6	1.4515061978163
9	18604	203.7	1.2809749581857
9	18625	203.8	1.4602223447643
9	18631	203.9	1.3092331237923
9	18637	204	1.3398864382832
9	18643	204.1	1.4330796804162
9	18649	204.2	1.2956872092134
9	18655	204.3	1.3225797129318
9	18661	204.4	1.4571180412399
9	18682	204.5	1.2938381791613
9	18688	204.6	1.3769160502043
9	18694	204.7	1.4137156134656
9	18715	204.8	1.3843026838415
9	18721	204.9	1.3623709810202
9	18727	205	1.2995225345972
9	18733	205.1	1.3128328947379
9	18763	205.2	1.398312556552
9	18769	205.3	1.353930265566
9	18775	205.4	1.3890110399497
9	18796	205.5	1.3518319055517
9	18802	205.6	1.4175541055233
9	18808	205.7	1.2719927216388
9	18829	205.8	1.3762878214298
9	18835	205.9	1.3336464574697
9	18841	206	1.4469402226465
9	18847	206.1	1.371138230017
9	18853	206.2	1.3749489017778
9	18859	206.3	1.2613052271027
9	18865	206.4	1.3843727526694
9	18886	206.5	1.4366855202788
9	18892	206.6	1.3159373524218
9	18898	206.7	1.3792449121649
9	18919	206.8	1.3942592209155
9	18925	206.9	1.3613826333659
9	18931	207	1.2658336982356
9	18937	207.1	1.4418806819363
9	18943	207.2	1.2856772629401
9	18949	207.3	1.4670222183715
9	18955	207.4	1.3161202681421
9	18976	207.5	1.4025731794597
9	18982	207.6	1.3777867908339
9	18988	207.7	1.2963632314658
9	19009	207.8	1.4156770270594
9	19015	207.9	1.2891752046549
9	19021	208	1.36523919908
9	19027	208.1	1.4255028178319
9	19033	208.2	1.2701698432933
9	19039	208.3	1.3889054898957
9	19045	208.4	1.4135329196316
9	19066	208.5	1.3128691996068
9	19072	208.6	1.3596127146384
9	19078	208.7	1.4094857585328
9	19099	208.8	1.3585230447135
9	19105	208.9	1.3645339253441
9	19111	209	1.3314153136428
9	19117	209.1	1.328115412219
9	19123	209.2	1.4502511005599
9	19129	209.3	1.2778209333595
9	19135	209.4	1.4648558036983
9	19156	209.5	1.2862452124447
9	19162	209.6	1.3921251013653
9	19168	209.7	1.3169732290791
9	19189	209.8	1.3707824318437
9	19195	209.9	1.3915060105166
9	19201	210	1.3426849922391
9	19207	210.1	1.3795753470903
9	19237	210.2	1.3250360137031
9	19243	210.3	1.4028661131685
9	19249	210.4	1.356792538742
9	19270	210.5	1.3954452667147
9	19276	210.6	1.3197453593747
9	19282	210.7	1.3989658629316
9	19303	210.8	1.3294044074057
9	19309	210.9	1.4117535968342
9	19315	211	1.3638891827138
9	19321	211.1	1.3315071427441
9	19327	211.2	1.3613332552277
9	19333	211.3	1.3817137885973
9	19339	211.4	1.3791201787893
9	19360	211.5	1.3738574058751
9	19366	211.6	1.3644177900546
9	19372	211.7	1.3329323053468
9	19393	211.8	1.3395822449438
9	19399	211.9	1.3305340740594
9	19405	212	1.3927469200525
9	19411	212.1	1.3106261473887
9	19417	212.2	1.4674146915824
9	19423	212.3	1.3451284115086
9	19429	212.4	1.343552109046
9	19450	212.5	1.3336647771693
9	19456	212.6	1.3291671677684
9	19462	212.7	1.4230671342201
9	19483	212.8	1.3725009138529
9	19489	212.9	1.3875451352102
9	19495	213	1.2709352439035
9	19501	213.1	1.4157147765173
9	19507	213.2	1.3393365283498
9	19513	213.3	1.3126559136161
9	19519	213.4	1.4810723850687
9	19540	213.5	1.3453375665239
9	19546	213.6	1.2860804675673
9	19552	213.7	1.3591733350235
9	19573	213.8	1.3666399929236
9	19579	213.9	1.3904070006104
9	19585	214	1.3090678085719
9	19591	214.1	1.4326852065741
9	19597	214.2	1.3376512006239
9	19603	214.3	1.427602426344
9	19609	214.4	1.3208036381728
9	19630	214.5	1.3247298409021
9	19636	214.6	1.420881056066
9	19642	214.7	1.2774239759751
9	19663	214.8	1.3932998215311
9	19669	214.9	1.4106656156361
9	19675	215	1.3044008821966
9	19681	215.1	1.4453307496044
9	19711	215.2	1.2549802180228
9	19717	215.3	1.4742306221379
9	19723	215.4	1.2558888528467
9	19744	215.5	1.4445789419239
9	19750	215.6	1.3015726720382
9	19756	215.7	1.4540562303318
9	19777	215.8	1.3319956316354
9	19783	215.9	1.3027928168802
9	19789	216	1.3885460362159
9	19795	216.1	1.4129671434165
9	19801	216.2	1.328976007804
9	19807	216.3	1.3647172462863
9	19813	216.4	1.339250478955
9	19834	216.5	1.3503672908657
9	19840	216.6	1.3414898058039
9	19846	216.7	1.4038355662888
9	19867	216.8	1.3751989353916
9	19873	216.9	1.3925487712087
9	19879	217	1.2827996264249
9	19885	217.1	1.3733581850594
9	19891	217.2	1.3992074209544
9	19897	217.3	1.3492496319725
9	19903	217.4	1.3447205360114
9	19924	217.5	1.4229320293161
9	19930	217.6	1.3793131919009
9	19936	217.7	1.3276125644702
9	19957	217.8	1.3289499495075
9	19963	217.9	1.375598121107
9	19969	218	1.3375829307895
9	19975	218.1	1.3470005688252
9	19981	218.2	1.4023542386562
9	19987	218.3	1.4053399705666
9	19993	218.4	1.2761035392087
9	20014	218.5	1.3956063362049
9	20020	218.6	1.3424925062592
9	20026	218.7	1.3666030625568
9	20047	218.8	1.3305174104588
9	20053	218.9	1.4436215524049
9	20059	219	1.3130230789753
9	20065	219.1	1.4034411781896
9	20071	219.2	1.3589490792747
9	20077	219.3	1.3824713308569
9	20083	219.4	1.3489004215475
9	20104	219.5	1.2895458949444
9	20110	219.6	1.4415547022291
9	20116	219.7	1.3682218166069
9	20137	219.8	1.3218468220962
9	20143	219.9	1.4017595922933
9	20149	220	1.3365611526074
9	20155	220.1	1.3188845273719
9	20185	220.2	1.4353417346119
9	20191	220.3	1.3388790940479
9	20197	220.4	1.3402899576004
9	20218	220.5	1.3702535856582
9	20224	220.6	1.310604685161
9	20230	220.7	1.3977933447347
9	20251	220.8	1.3551709364733
9	20257	220.9	1.3349122665886
9	20263	221	1.429041969208
9	20269	221.1	1.3696627765763
9	20275	221.2	1.4002577147454
9	20281	221.3	1.345740775452
9	20287	221.4	1.3562348109848
9	20308	221.5	1.369112816928
9	20314	221.6	1.2935957826564
9	20320	221.7	1.3888010512852
9	20341	221.8	1.3465243238088
9	20347	221.9	1.3439092186109
9	20353	222	1.4336446868235
9	20359	222.1	1.3511094673857
9	20365	222.2	1.316338348121
9	20371	222.3	1.4005307884692
9	20377	222.4	1.4065289516642
9	20398	222.5	1.3136649985468
9	20404	222.6	1.3053151971406
9	20410	222.7	1.4226323355011
9	20431	222.8	1.3718090290334
9	20437	222.9	1.2831565560458
9	20443	223	1.4039240042199
9	20449	223.1	1.3960702176434
9	20455	223.2	1.394493997565
9	20461	223.3	1.2798005168664
9	20467	223.4	1.371956011457
9	20488	223.5	1.3365185583379
9	20494	223.6	1.4474997419429
9	20500	223.7	1.375014453698
9	20521	223.8	1.2890519159736
9	20527	223.9	1.4253511733057
9	20533	224	1.3659377381716
9	20539	224.1	1.3452657468627
9	20545	224.2	1.3025040169376
9	20551	224.3	1.3958269593908
9	20557	224.4	1.4222058037984
9	20578	224.5	1.3121638621954
9	20584	224.6	1.3358861287177
9	20590	224.7	1.3799776440396
9	20611	224.8	1.3583294419522
9	20617	224.9	1.4044991096525
9	20623	225	1.2873401274249
9	20629	225.1	1.3969029921553
9	20659	225.2	1.3440824462339
9	20665	225.3	1.3299008842579
9	20671	225.4	1.4291707196903
9	20692	225.5	1.3077869685808
9	20698	225.6	1.4680329741807
9	20704	225.7	1.3595809239699
9	20725	225.8	1.295397827914
9	20731	225.9	1.3961537003338
9	20737	226	1.3702189452013
9	20743	226.1	1.359022140004
9	20749	226.2	1.3576984782974
9	20755	226.3	1.3129467642458
9	20761	226.4	1.3816615570206
9	20782	226.5	1.3358632319895
9	20788	226.6	1.3573378308899
9	20794	226.7	1.3607500496841
9	20815	226.8	1.4140848635717
8	213	10.3	0.086088718280769
8	219	10.4	0.083086424670556
8	240	10.5	0.080183306754717
8	246	10.6	0.081195221203254
8	252	10.7	0.066086326033332
8	273	10.8	0.074131950606978
8	279	10.9	0.040671785748317
8	285	11	0.031969687686455
8	291	11.1	0.071704880573013
8	297	11.2	0.035899552933586
8	303	11.3	0.055280362536912
8	309	11.4	0.04882997299411
8	330	11.5	0.012101636231495
8	336	11.6	0.093168166075704
8	342	11.7	0.091287070303224
8	363	11.8	0.097978160087951
8	369	11.9	0.016738015715964
8	375	12	0.022184324311092
8	381	12.1	0.012998785474338
8	387	12.2	0.0021381657104941
8	393	12.3	0.020084143616259
8	399	12.4	0.053852063720114
8	420	12.5	0.021947082434781
8	426	12.6	0.088172557624057
8	432	12.7	0.036007898300886
8	453	12.8	0.085664671449922
8	459	12.9	0.0055331081384793
8	465	13	0.047815167182125
8	471	13.1	0.058533805888146
8	477	13.2	0.073544438858517
8	483	13.3	0.022576631349512
8	489	13.4	0.054384966404177
8	510	13.5	0.043156605167315
8	516	13.6	0.098121020197869
8	522	13.7	0.038236449914985
8	543	13.8	0.038790427753702
8	549	13.9	0.03830660013482
8	555	14	0.0056251924717798
8	561	14.1	0.031817970215343
8	567	14.2	0.06404920979403
8	573	14.3	0.056296804733574
8	579	14.4	0.03023688045796
8	600	14.5	0.09397745335009
8	606	14.6	0.033323328872211
8	612	14.7	0.032936212630011
8	633	14.8	0.078961743833497
8	639	14.9	0.087107370165177
8	645	15	0.068457165034488
8	651	15.1	0.063628922658973
8	686	15.2	0.042980322404765
8	692	15.3	0.056139848660678
8	698	15.4	0.0011626168154183
8	719	15.5	0.089795519318432
8	725	15.6	0.079112324141897
8	731	15.7	0.083869048883207
8	752	15.8	0.03468916779384
8	758	15.9	0.074670839868486
8	764	16	0.053368922718801
8	770	16.1	0.075557441194542
8	776	16.2	0.084103041351773
8	782	16.3	0.088962486083619
8	788	16.4	0.034367040800862
8	809	16.5	0.086181705049239
8	815	16.6	0.080341764329933
8	821	16.7	0.063127483427525
8	842	16.8	0.017900676908903
8	848	16.9	0.090289872884751
8	854	17	0.01620550933294
8	860	17.1	0.090390159888193
8	866	17.2	0.0023540534777566
8	872	17.3	0.053134880168363
8	878	17.4	0.002323890919797
8	899	17.5	0.039515448198654
8	905	17.6	0.026073641865514
8	911	17.7	0.096081221103668
8	932	17.8	0.071719304053113
8	938	17.9	0.08798034354113
8	944	18	0.070385980070569
8	950	18.1	0.088127228571102
8	956	18.2	0.068201682670042
8	962	18.3	0.058573701162823
8	968	18.4	0.093585249898024
8	989	18.5	0.030752788065002
8	995	18.6	0.043339855154045
8	1001	18.7	0.073461050889455
8	1022	18.8	0.047675194707699
8	1028	18.9	0.090605949400924
8	1034	19	0.042405350483023
8	1040	19.1	0.0070703802164634
8	1046	19.2	0.068143104505726
8	1052	19.3	0.033258962375112
8	1058	19.4	0.086820213799365
8	1079	19.5	0.028367280215025
8	1085	19.6	0.071059390902519
8	1091	19.7	0.08168086365331
8	1112	19.8	0.041348706698046
8	1118	19.9	0.097989244945348
8	1124	20	0.017105997167528
8	1130	20.1	0.099530451791361
8	1165	20.2	0.032218346069567
8	1171	20.3	0.07299920313526
8	1177	20.4	0.026480597956107
8	1198	20.5	0.0037811455084014
8	1204	20.6	0.075124686025083
8	1210	20.7	0.042384266410954
8	1231	20.8	0.040795807354153
8	1237	20.9	0.04277480985038
8	1243	21	0.077691836934537
8	1249	21.1	0.0047250990755854
8	1255	21.2	0.055287462146952
8	1261	21.3	0.015359133388847
8	1267	21.4	0.030052072252147
8	1288	21.5	0.070256304834038
8	1294	21.6	0.018620218033902
8	1300	21.7	0.060349426115863
8	1321	21.8	0.011889679916203
8	1327	21.9	0.041872712410986
8	1333	22	0.011826464044862
8	1339	22.1	0.030746840848588
8	1345	22.2	0.027474571857602
8	1351	22.3	0.049867561692372
8	1357	22.4	0.0043916360242291
8	1378	22.5	0.035600980347954
8	1384	22.6	0.05761449560523
8	1390	22.7	0.039360678312369
8	1411	22.8	0.098080679937266
8	1417	22.9	0.069842518377118
8	1423	23	0.033982646162621
8	1429	23.1	0.070992239005864
8	1435	23.2	0.038198457309045
8	1441	23.3	0.057123130140826
8	1447	23.4	0.086452593142167
8	1468	23.5	0.070171767217108
8	1474	23.6	0.043003508844413
8	1480	23.7	0.040912723704242
8	1501	23.8	0.04256747441832
8	1507	23.9	0.034679918456823
8	1513	24	0.034789672563784
8	1519	24.1	0.056858156551607
8	1525	24.2	0.010345340170897
8	1531	24.3	0.063243812834844
8	1537	24.4	0.056413508066908
8	1558	24.5	0.010807664180175
8	1564	24.6	0.019380600820296
8	1570	24.7	0.029611141444184
8	1591	24.8	0.089977311342955
8	1597	24.9	0.0080517387017609
8	1603	25	0.028575870161877
8	1609	25.1	0.00011529971379765
8	1644	25.2	0.085055169533007
8	1650	25.3	0.013187393941917
8	1656	25.4	0.08375070686452
8	1677	25.5	0.038444043253548
8	1683	25.6	0.087618001759984
8	1689	25.7	0.015199177269823
8	1710	25.8	0.019268103968352
8	1716	25.9	0.04308992556762
8	1722	26	0.059281670232304
8	1728	26.1	0.093083300977014
8	1734	26.2	0.030257122754119
8	1740	26.3	0.054645731975325
8	1746	26.4	0.027794439485297
8	1767	26.5	0.013361767400056
8	1773	26.6	0.0024478487903257
8	1779	26.7	0.014419665699825
8	1800	26.8	0.098828591848724
8	1806	26.9	0.064002194092609
8	1812	27	0.027000943827443
8	1818	27.1	0.082837032247335
8	1824	27.2	0.047896339697764
8	1830	27.3	0.094566201395355
8	1836	27.4	0.080000347457826
8	1857	27.5	0.098147820588201
8	1863	27.6	0.020630229753442
8	1869	27.7	0.077607531729155
8	1890	27.8	0.065464832144789
8	1896	27.9	0.0071918707340957
8	1902	28	0.029558560065925
8	1908	28.1	0.096816107607447
8	1914	28.2	0.083530584350229
8	1920	28.3	0.037852159328758
8	1926	28.4	0.042277141474187
8	1947	28.5	0.07621071850881
8	1953	28.6	0.0065785998245704
8	1959	28.7	0.038603404746391
8	1980	28.8	0.046436720271595
8	1986	28.9	0.041009002225474
8	1992	29	0.026987797371112
8	1998	29.1	0.068805500445888
8	2004	29.2	0.060177893261425
8	2010	29.3	0.079015624593012
8	2016	29.4	0.081380699458532
8	2037	29.5	0.0055627611465758
8	2043	29.6	0.026044920342975
8	2049	29.7	0.050954119814558
8	2070	29.8	0.077258537081071
8	2076	29.9	0.074564351723529
8	2082	30	0.094197083753533
8	2088	30.1	0.056558337109163
8	2123	30.2	0.068820412317292
8	2129	30.3	0.030365651426838
8	2135	30.4	0.06222481627483
8	2156	30.5	0.082039632252418
8	2162	30.6	0.097532127122395
8	2168	30.7	0.093275036918932
8	2189	30.8	0.032060722424649
8	2195	30.9	0.05463031604886
8	2201	31	0.046342079131865
8	2207	31.1	0.010332870972343
8	2213	31.2	0.00096610540058384
8	2219	31.3	0.078310301899911
8	2225	31.4	0.03369217964355
8	2246	31.5	0.07366776219569
8	2252	31.6	0.097934899525718
8	2258	31.7	0.024162134807557
8	2279	31.8	0.067998285521753
8	2285	31.9	0.061653610877692
8	2291	32	0.041168288257905
8	2297	32.1	0.016895154234953
8	2303	32.2	0.037101815105416
8	2309	32.3	0.012734934245235
8	2315	32.4	0.072645796672441
8	2336	32.5	0.020195316965692
8	2342	32.6	0.081436405680142
8	2348	32.7	0.0047208341769878
8	2369	32.8	0.031251172721387
8	2375	32.9	0.078449232224376
8	2381	33	0.0052629405399784
8	2387	33.1	0.026914419746027
8	2393	33.2	0.074605835461989
8	2399	33.3	0.078668802510946
8	2405	33.4	0.048179928865284
8	2426	33.5	0.09743372865487
8	2432	33.6	0.079252992128023
8	2438	33.7	0.057531453482806
8	2459	33.8	0.062583002145402
8	2465	33.9	0.053642457723617
8	2471	34	0.072237129160204
8	2477	34.1	0.041321565466934
8	2483	34.2	0.013614439871161
8	2489	34.3	0.088246814254671
8	2495	34.4	0.048262088885531
8	2516	34.5	0.086793189030141
8	2522	34.6	0.028314032009802
8	2528	34.7	0.060394029621966
8	2549	34.8	0.04345786923077
8	2555	34.9	0.081672016042285
8	2561	35	0.085515223746189
8	2567	35.1	0.051194371539167
8	2602	35.2	0.064438726496883
8	2608	35.3	0.0059568048454817
8	2614	35.4	0.023467474756762
8	2635	35.5	0.025133637548425
8	2641	35.6	0.0096280260477211
8	2647	35.7	0.091657756525092
8	2668	35.8	0.044780752854421
8	2674	35.9	0.04155239276588
8	2680	36	0.0038063616491857
8	2686	36.1	0.070785246929155
8	2692	36.2	0.075917122280225
8	2698	36.3	0.089970605541021
8	2704	36.4	0.098357036872767
8	2725	36.5	0.0070470681879664
8	2731	36.6	0.033008345775307
8	2737	36.7	0.021484708972275
8	2758	36.8	0.07182698957622
8	2764	36.9	0.041358983004465
8	2770	37	0.093604473420419
8	2776	37.1	0.051437240652741
8	2782	37.2	0.0022504864726214
8	2788	37.3	0.012349475757218
8	2794	37.4	0.066184104396962
8	2815	37.5	0.0038429842330512
8	2821	37.6	0.076829837448895
8	2827	37.7	0.0050681178225198
8	2848	37.8	0.0058622295036903
8	2854	37.9	0.020079741533845
8	2860	38	0.036955206445419
8	2866	38.1	0.012571203010157
8	2872	38.2	0.070697971596383
8	2878	38.3	0.015105644590221
8	2884	38.4	0.038212330802343
8	2905	38.5	0.098676314321347
8	2911	38.6	0.065276648825965
8	2917	38.7	0.085185913997703
8	2938	38.8	0.0018170613097035
8	2944	38.9	0.052162969345226
8	2950	39	0.050260863243603
8	2956	39.1	0.036052748351358
8	2962	39.2	0.063141539692879
8	2968	39.3	0.086309972591698
8	2974	39.4	0.017788226506672
8	2995	39.5	0.081015208619646
8	3001	39.6	0.048868101765402
8	3007	39.7	0.077568297600374
8	3028	39.8	0.090215551387518
8	3034	39.9	0.013780848588794
8	3040	40	0.0027080509811639
8	3046	40.1	0.0039165345486247
8	3081	40.2	0.0093444501981144
8	3087	40.3	0.022595266369172
8	3093	40.4	0.06668548437301
8	3114	40.5	0.091889860760421
8	3120	40.6	0.059275883226655
8	3126	40.7	0.076776585844345
8	3147	40.8	0.086751236696727
8	3153	40.9	0.094657282251864
8	3159	41	0.027440563193522
8	3165	41.1	0.098857254488394
8	3171	41.2	0.022941925120541
8	3177	41.3	0.085305335838348
8	3183	41.4	0.092047791322694
8	3204	41.5	0.091039696685038
8	3210	41.6	0.032795219705439
8	3216	41.7	0.075463278731331
8	3237	41.8	0.057946053822524
8	3243	41.9	0.044263121346011
8	3249	42	0.013944882852956
8	3255	42.1	0.027295573614539
8	3261	42.2	0.072967209643684
8	3267	42.3	0.086851720418781
8	3273	42.4	0.094462568312883
8	3294	42.5	0.069840136612767
8	3300	42.6	0.073788185208106
8	3306	42.7	0.054385943594388
8	3327	42.8	0.031671866611578
8	3333	42.9	0.030437455372885
8	3339	43	0.071648115152494
8	3345	43.1	0.062007304863072
8	3351	43.2	0.081884903716856
8	3357	43.3	0.021145448554307
8	3363	43.4	0.094315192708745
8	3384	43.5	0.030300275818445
8	3390	43.6	0.022130460315384
8	3396	43.7	0.022259244206362
8	3417	43.8	0.074057743442244
8	3423	43.9	0.062618686049245
8	3429	44	0.041240036324599
8	3435	44.1	0.072717810305767
8	3441	44.2	0.062914719991387
8	3447	44.3	0.080294572236017
8	3453	44.4	0.054014412127434
8	3474	44.5	0.09553877026774
8	3480	44.6	0.020020411675796
8	3486	44.7	0.092304355604573
8	3507	44.8	0.048116485239007
8	3513	44.9	0.069318989966995
8	3519	45	0.042245705099777
8	3525	45.1	0.004056665604002
8	3560	45.2	0.035442975885236
8	3566	45.3	0.096463756379672
8	3572	45.4	0.05695975604467
8	3593	45.5	0.048998314677737
8	3599	45.6	0.04638225005474
8	3605	45.7	0.031860748794861
8	3626	45.8	0.072240390558727
8	3632	45.9	0.087113943230361
8	3638	46	0.060732431872748
8	3644	46.1	0.0043594273040082
8	3650	46.2	0.081286910711789
8	3656	46.3	0.0096016048453751
8	3662	46.4	0.045619404641912
8	3683	46.5	0.054308857815339
8	3689	46.6	0.011795858503318
8	3695	46.7	0.054139604349621
8	3716	46.8	0.027583236386999
8	3722	46.9	0.060097467293962
8	3728	47	0.0095955605152986
8	3734	47.1	0.030997497984209
8	3740	47.2	0.030037794401869
8	3746	47.3	0.067227960238234
8	3752	47.4	0.024322135373951
8	3773	47.5	0.036393894348294
8	3779	47.6	0.075997972628101
8	3785	47.7	0.083946117758751
8	3806	47.8	0.020360852521843
8	3812	47.9	0.004083339706995
8	3818	48	0.054186117509381
8	3824	48.1	0.040901583689266
8	3830	48.2	0.014227735647001
8	3836	48.3	0.054277654597537
8	3842	48.4	0.0048125525237985
8	3863	48.5	0.042424884275534
8	3869	48.6	0.017923288024031
8	3875	48.7	0.009115628851577
8	3896	48.8	0.018447617534547
8	3902	48.9	0.084058553609065
8	3908	49	0.037110156053677
8	3914	49.1	0.06015657412354
8	3920	49.2	0.093728705076501
8	3926	49.3	0.057596774818371
8	3932	49.4	0.074131593434137
8	3953	49.5	0.015096169430762
8	3959	49.6	0.096669537364504
8	3965	49.7	0.0041017278563205
8	3986	49.8	0.06446311504114
8	3992	49.9	0.064329311018807
8	3998	50	0.098367149522525
8	4004	50.1	0.081476767547426
8	4039	50.2	0.059874050295909
8	4045	50.3	0.0070708586601498
8	4051	50.4	0.090038507385177
8	4072	50.5	0.0054698466556147
8	4078	50.6	0.013051146687939
8	4084	50.7	0.054583760094826
8	4105	50.8	0.067329911328851
8	4111	50.9	0.076725586783137
8	4117	51	0.038553529325869
8	4123	51.1	0.096692541101944
8	4129	51.2	0.098439393285661
8	4135	51.3	0.057120428094639
8	4141	51.4	0.093192592379636
8	4162	51.5	0.074805900896897
8	4168	51.6	0.077883908804504
8	4174	51.7	0.074680880899538
8	4195	51.8	0.086894476530142
8	4201	51.9	0.098796377680261
8	4207	52	0.08845157071482
8	4213	52.1	0.038151973625644
8	4219	52.2	0.0025743782985943
8	4225	52.3	0.00096549938898516
8	4231	52.4	0.059094590577295
8	4252	52.5	0.083704557642337
8	4258	52.6	0.036123824538663
8	4264	52.7	0.050969465705566
8	4285	52.8	0.0010590225225293
8	4291	52.9	0.093469579378143
8	4297	53	0.021676556160672
8	4303	53.1	0.071160149690694
8	4309	53.2	0.075858138175677
8	4315	53.3	0.033749542944133
8	4321	53.4	0.075393681670537
8	4342	53.5	0.033414088585411
8	4348	53.6	0.048269148683175
8	4354	53.7	0.057591101294383
8	4375	53.8	0.04453121887054
8	4381	53.9	0.071294848038814
8	4387	54	0.029342529247511
8	4393	54.1	0.058514312980695
8	4399	54.2	0.063945444067937
8	4405	54.3	0.017134308419187
8	4411	54.4	0.007503308379091
8	4432	54.5	0.095399268902838
8	4438	54.6	0.076737300935199
8	4444	54.7	0.06514806365594
8	4465	54.8	0.018503351858814
8	4471	54.9	0.0014508569613092
8	4477	55	0.0031028296332769
8	4483	55.1	0.0095051657874112
8	4518	55.2	0.070344373420812
8	4524	55.3	0.00079887558240177
8	4530	55.4	0.075057995691892
8	4551	55.5	0.089409384154711
8	4557	55.6	0.0049047391628809
8	4563	55.7	0.076657974440604
8	4584	55.8	0.031023173453284
8	4590	55.9	0.094164364784954
8	4596	56	0.026929089729673
8	4602	56.1	0.011827978584913
8	4608	56.2	0.072756310226394
8	4614	56.3	0.062094310414977
8	4620	56.4	0.06257038170006
8	4641	56.5	0.025121174752711
8	4647	56.6	0.076219275826586
8	4653	56.7	0.082814690051598
8	4674	56.8	0.05507083518896
8	4680	56.9	0.069553159549831
8	4686	57	0.016081087919879
8	4692	57.1	0.076225817645899
8	4698	57.2	0.049761054362167
8	4704	57.3	0.0057416397379706
8	4710	57.4	0.036600230471229
8	4731	57.5	0.013271059445104
8	4737	57.6	0.0059790306491747
8	4743	57.7	0.024923513596877
8	4764	57.8	0.030042493855578
8	4770	57.9	0.0032034429023042
8	4776	58	0.00055992119014192
8	4782	58.1	0.054817831842229
8	4788	58.2	0.092913022032004
8	4794	58.3	0.070720596890896
8	4800	58.4	0.084764529718084
8	4821	58.5	0.058251362829469
8	4827	58.6	0.086871066968888
8	4833	58.7	0.039588219462892
8	4854	58.8	0.061719194147734
8	4860	58.9	0.010461411532012
8	4866	59	0.0032205327413948
8	4872	59.1	0.045311510330066
8	4878	59.2	0.0725176429376
8	4884	59.3	0.040776958200146
8	4890	59.4	0.010323884338139
8	4911	59.5	0.059326665825208
8	4917	59.6	0.044792172987944
8	4923	59.7	0.072834723023694
8	4944	59.8	0.054455585358664
8	4950	59.9	0.059828645782543
8	4956	60	0.075158653967082
8	4962	60.1	0.049413361563344
8	4997	60.2	0.068961917445991
8	5003	60.3	0.062696513650007
8	5009	60.4	0.047502955235537
8	5030	60.5	0.024940498103385
8	5036	60.6	0.06664925322402
8	5042	60.7	0.0075841235462537
8	5063	60.8	0.013768145209174
8	5069	60.9	0.095130970934405
8	5075	61	0.074635747750289
8	5081	61.1	0.055386449256911
8	5087	61.2	0.089537211460993
8	5093	61.3	0.065152401058
8	5099	61.4	0.025990247260776
8	5120	61.5	0.031948551768437
8	5126	61.6	0.037761557754128
8	5132	61.7	0.02894716018345
[...]
0	19489	212.9	528.81517891202
0	19495	213	529.31073763947
0	19501	213.1	529.8061336596
0	19507	213.2	530.30192211749
0	19513	213.3	530.79771034996
0	19519	213.4	531.29361503575
0	19540	213.5	531.78955425551
0	19546	213.6	532.28586065208
0	19552	213.7	532.78245139943
0	19573	213.8	533.27881972238
0	19579	213.9	533.77530736232
0	19585	214	534.27265357012
0	19591	214.1	534.77095499735
0	19597	214.2	535.26948954716
0	19603	214.3	535.76820710723
0	19609	214.4	536.26670041517
0	19630	214.5	536.76509806787
0	19636	214.6	537.26415764618
0	19642	214.7	537.76296725063
0	19663	214.8	538.26183318164
0	19669	214.9	538.76134920618
0	19675	215	539.26057539609
0	19681	215.1	539.76021535459
0	19711	215.2	540.25913277028
0	19717	215.3	540.75859738766
0	19723	215.4	541.25785227103
0	19744	215.5	541.75650497661
0	19750	215.6	542.25467664011
0	19756	215.7	542.75241145562
0	19777	215.8	543.24999057154
0	19783	215.9	543.74836538257
0	19789	216	544.24703827295
0	19795	216.1	544.74525873505
0	19801	216.2	545.24394968276
0	19807	216.3	545.74340138566
0	19813	216.4	546.24311441682
0	19834	216.5	546.74229039434
0	19840	216.6	547.24225784163
0	19846	216.7	547.74110244946
0	19867	216.8	548.24035820375
0	19873	216.9	548.74002316643
0	19879	217	549.23958577142
0	19885	217.1	549.7383810553
0	19891	217.2	550.23812056747
0	19897	217.3	550.73696358619
0	19903	217.4	551.23566315954
0	19924	217.5	551.73524042106
0	19930	217.6	552.23399386648
0	19936	217.7	552.73348924864
0	19957	217.8	553.23328460008
0	19963	217.9	553.73303499829
0	19969	218	554.23303086128
0	19975	218.1	554.73223067625
0	19981	218.2	555.23167721247
0	19987	218.3	555.73146233262
0	19993	218.4	556.23015923976
0	20014	218.5	556.72909684439
0	20020	218.6	557.22851138692
0	20026	218.7	557.72771230606
0	20047	218.8	558.22649848822
0	20053	218.9	558.72602826816
0	20059	219	559.22472975325
0	20065	219.1	559.72355307116
0	20071	219.2	560.22245309121
0	20077	219.3	560.72147029801
0	20083	219.4	561.22113831934
0	20104	219.5	561.72086121154
0	20110	219.6	562.22014518306
0	20116	219.7	562.71961066896
0	20137	219.8	563.21924941443
0	20143	219.9	563.71837751049
0	20149	220	564.21709323361
0	20155	220.1	564.71597361012
0	20185	220.2	565.2144942018
0	20191	220.3	565.71293960096
0	20197	220.4	566.2110343442
0	20218	220.5	566.70982652136
0	20224	220.6	567.20873769361
0	20230	220.7	567.70811684924
0	20251	220.8	568.20700129159
0	20257	220.9	568.70621091444
0	20263	221	569.20559264271
0	20269	221.1	569.70537817453
0	20275	221.2	570.20484634281
0	20281	221.3	570.70384463764
0	20287	221.4	571.20307977361
0	20308	221.5	571.70230107574
0	20314	221.6	572.20132882693
0	20320	221.7	572.70091507061
0	20341	221.8	573.20058395122
0	20347	221.9	573.69913231336
0	20353	222	574.19847392853
0	20359	222.1	574.69835243125
0	20365	222.2	575.19729695574
0	20371	222.3	575.69627079224
0	20377	222.4	576.19568816885
0	20398	222.5	576.69557298949
0	20404	222.6	577.19515369458
0	20410	222.7	577.69506035772
0	20431	222.8	578.19357667576
0	20437	222.9	578.69204988279
0	20443	223	579.19087525017
0	20449	223.1	579.68932102259
0	20455	223.2	580.18791862638
0	20461	223.3	580.68644931772
0	20467	223.4	581.18521985445
0	20488	223.5	581.68375067425
0	20494	223.6	582.18180782431
0	20500	223.7	582.68024678258
0	20521	223.8	583.17946479487
0	20527	223.9	583.67886202809
0	20533	224	584.17766546021
0	20539	224.1	584.67746861226
0	20545	224.2	585.17603672009
0	20551	224.3	585.67461105621
0	20557	224.4	586.17371942058
0	20578	224.5	586.67298468852
0	20584	224.6	587.1725885794
0	20590	224.7	587.67193468247
0	20611	224.8	588.17097735382
0	20617	224.9	588.66996623788
0	20623	225	589.16947096194
0	20629	225.1	589.66943651257
0	20659	225.2	590.1688707211
0	20665	225.3	590.66830765411
0	20671	225.4	591.16768961748
0	20692	225.5	591.66624102927
0	20698	225.6	592.1643372956
0	20704	225.7	592.66321049072
0	20725	225.8	593.16171353693
0	20731	225.9	593.65974889367
0	20737	226	594.15839927915
0	20743	226.1	594.65693812878
0	20749	226.2	595.15621379613
0	20755	226.3	595.65550584767
0	20761	226.4	596.15459504078
0	20782	226.5	596.65432565806
0	20788	226.6	597.15350488193
0	20794	226.7	597.65239663498
0	20815	226.8	598.15128726139
0	20821	226.9	598.65023176807
0	20825	227	599.14999562638
0	20829	227.1	599.64860622756
0	20833	227.2	600.14678224447
0	20837	227.3	600.64496561599
0	20841	227.4	601.14393761194
0	20845	227.5	601.64378890711
0	20849	227.6	602.14287055009
0	20853	227.7	602.64205726966
0	20866	227.8	603.14186297256
0	20870	227.9	603.64132896167
0	20874	228	604.14051940666
0	20878	228.1	604.63903825419
0	20882	228.2	605.13725595126
0	20886	228.3	605.63645316523
0	20890	228.4	606.13550773709
0	20894	228.5	606.63458946579
0	20898	228.6	607.13322658576
0	20902	228.7	607.63177827108
0	20915	228.8	608.13034214
0	20919	228.9	608.62947264877
0	20923	229	609.12878954922
0	20927	229.1	609.62732908695
0	20931	229.2	610.12616833128
0	20935	229.3	610.62471827067
0	20939	229.4	611.1239507538
0	20943	229.5	611.62257727454
0	20947	229.6	612.12077300374
0	20951	229.7	612.61993988485
0	20964	229.8	613.11947349585
0	20968	229.9	613.61861868762
0	20972	230	614.1180187688
0	20976	230.1	614.61757679344
0	20988	230.2	615.11753210912
0	20992	230.3	615.61625856617
0	20996	230.4	616.11540301406
0	21000	230.5	616.61445373958
0	21004	230.6	617.11427868094
0	21008	230.7	617.61347036543
0	21021	230.8	618.11318322711
0	21025	230.9	618.61301134486
0	21029	231	619.11182703741
0	21033	231.1	619.61083239575
0	21037	231.2	620.11012411066
0	21041	231.3	620.60917625444
0	21045	231.4	621.10791964583
0	21049	231.5	621.60622916875
0	21053	231.6	622.10505441831
0	21057	231.7	622.60400209135
0	21070	231.8	623.10337497025
0	21074	231.9	623.60192386935
0	21078	232	624.10022456658
0	21082	232.1	624.59808285462
0	21086	232.2	625.09683969536
0	21090	232.3	625.5956212356
0	21094	232.4	626.09417214216
0	21098	232.5	626.59296418674
0	21102	232.6	627.0924481464
0	21106	232.7	627.59174911378
0	21119	232.8	628.09076671822
0	21123	232.9	628.58943115037
0	21127	233	629.08829627828
0	21131	233.1	629.58811902116
0	21135	233.2	630.08693509292
0	21139	233.3	630.58658045239
0	21143	233.4	631.08543070557
0	21147	233.5	631.58512785116
0	21151	233.6	632.08426474516
0	21155	233.7	632.58312934218
0	21168	233.8	633.08212290524
0	21172	233.9	633.58160699177
0	21176	234	634.08050545023
0	21180	234.1	634.57944695587
0	21184	234.2	635.07847261665
0	21188	234.3	635.5775669423
0	21192	234.4	636.07672845485
0	21196	234.5	636.5761497129
0	21200	234.6	637.07540316986
0	21204	234.7	637.57460581829
0	21217	234.8	638.07316955359
0	21221	234.9	638.57176558108
0	21225	235	639.07102974865
0	21229	235.1	639.56961832315
0	21241	235.2	640.06855125628
0	21245	235.3	640.56762073831
0	21249	235.4	641.06699255722
0	21253	235.5	641.56607100596
0	21257	235.6	642.06519117135
0	21261	235.7	642.56508938762
0	21274	235.8	643.06406371323
0	21278	235.9	643.56260971512
0	21282	236	644.06182156036
0	21286	236.1	644.56102943747
0	21290	236.2	645.06018665104
0	21294	236.3	645.55898474091
0	21298	236.4	646.05740224759
0	21302	236.5	646.55674431767
0	21306	236.6	647.05639279702
0	21310	236.7	647.55576143182
0	21323	236.8	648.05559522586
0	21327	236.9	648.55520976267
0	21331	237	649.05479091405
0	21335	237.1	649.5543904502
0	21339	237.2	650.05356133909
0	21343	237.3	650.5523741585
0	21347	237.4	651.05150825568
0	21351	237.5	651.55057245559
0	21355	237.6	652.04991187701
0	21359	237.7	652.54925225905
0	21372	237.8	653.04827096119
0	21376	237.9	653.54825508258
0	21380	238	654.04688035449
0	21384	238.1	654.54505823448
0	21388	238.2	655.04395732049
0	21392	238.3	655.54241337162
0	21396	238.4	656.04134656229
0	21400	238.5	656.54095342465
0	21404	238.6	657.04037567712
0	21408	238.7	657.54031365756
0	21421	238.8	658.04008360204
0	21425	238.9	658.539288303
0	21429	239	659.03795254587
0	21433	239.1	659.53618967253
0	21437	239.2	660.03402813407
0	21441	239.3	660.53150100184
0	21445	239.4	661.02847505761
0	21449	239.5	661.52557211909
0	21453	239.6	662.02331336847
0	21457	239.7	662.52159929457
0	21470	239.8	663.02077759281
0	21474	239.9	663.52028265148
0	21478	240	664.02006009112
0	21482	240.1	664.5187132208
0	21494	240.2	665.01713505201
0	21498	240.3	665.51581920717
0	21502	240.4	666.01410884506
0	21506	240.5	666.51320180859
0	21510	240.6	667.01266796147
0	21514	240.7	667.51229532326
0	21527	240.8	668.01085157901
0	21531	240.9	668.50999264241
0	21535	241	669.00879721502
0	21539	241.1	669.5084164676
0	21543	241.2	670.00788622852
0	21547	241.3	670.50719166195
0	21551	241.4	671.00591523258
0	21555	241.5	671.50426472685
0	21559	241.6	672.00265271256
0	21563	241.7	672.50103752446
0	21576	241.8	672.99975261098
0	21580	241.9	673.49935898661
0	21584	242	673.99868109823
0	21588	242.1	674.49867285602
0	21592	242.2	674.99722967636
0	21596	242.3	675.4963721252
0	21600	242.4	675.99593259095
0	21604	242.5	676.49538855155
0	21608	242.6	676.99438400931
0	21612	242.7	677.49321434256
0	21625	242.8	677.99183836054
0	21629	242.9	678.49001187024
0	21633	243	678.98860730476
0	21637	243.1	679.48762138852
0	21641	243.2	679.98692495351
0	21645	243.3	680.48589491846
0	21649	243.4	680.98490147637
0	21653	243.5	681.4834091235
0	21657	243.6	681.9820350988
0	21661	243.7	682.48054257423
0	21674	243.8	682.97895021086
0	21678	243.9	683.47740356316
0	21682	244	683.97557344568
0	21686	244.1	684.47462621592
0	21690	244.2	684.97381360093
0	21694	244.3	685.47332877813
0	21698	244.4	685.97188964875
0	21702	244.5	686.47008043112
0	21706	244.6	686.96884951011
0	21710	244.7	687.46831708087
0	21723	244.8	687.96821694568
0	21727	244.9	688.46695156014
0	21731	245	688.96610964401
0	21735	245.1	689.4650651585
0	21747	245.2	689.96357453357
0	21751	245.3	690.46253442208
0	21755	245.4	690.96134841054
0	21759	245.5	691.4603686376
0	21763	245.6	691.96007329961
0	21767	245.7	692.45925908992
0	21780	245.8	692.95778953147
0	21784	245.9	693.45624889234
0	21788	246	693.95465462721
0	21792	246.1	694.45328552817
0	21796	246.2	694.95171757524
0	21800	246.3	695.45095000831
0	21804	246.4	695.95086920466
0	21808	246.5	696.44970902265
0	21812	246.6	696.94846485452
0	21816	246.7	697.44761127765
0	21829	246.8	697.94688583819
0	21833	246.9	698.44544119736
0	21837	247	698.94380416706
0	21841	247.1	699.44274186608
0	21845	247.2	699.94160547854
0	21849	247.3	700.44107447283
0	21853	247.4	700.94080984468
0	21857	247.5	701.44030958359
0	21861	247.6	701.93893150353
0	21865	247.7	702.43769494794
0	21878	247.8	702.93659183266
0	21882	247.9	703.43514641278
0	21886	248	703.93412240372
0	21890	248.1	704.43383397219
0	21894	248.2	704.93349241259
0	21898	248.3	705.43307289439
0	21902	248.4	705.9318975856
0	21906	248.5	706.43084975706
0	21910	248.6	706.92934587492
0	21914	248.7	707.42816049143
0	21927	248.8	707.92687182737
0	21931	248.9	708.42591217898
0	21935	249	708.92499738355
0	21939	249.1	709.42376628216
0	21943	249.2	709.92210967646
0	21947	249.3	710.42006725332
0	21951	249.4	710.91795747277
0	21955	249.5	711.41612573178
0	21959	249.6	711.91460928182
0	21963	249.7	712.41306180416
0	21976	249.8	712.91203184575
0	21980	249.9	713.41080029926
0	21984	250	713.91028569473
0	21988	250.1	714.40950814512
0	22000	250.2	714.90819762399
0	22004	250.3	715.40744562825
0	22008	250.4	715.90636129442
0	22012	250.5	716.4053198337
0	22016	250.6	716.90381125461
0	22020	250.7	717.40242501185
0	22033	250.8	717.90192596403
0	22037	250.9	718.40057361979
0	22041	251	718.89974918947
0	22045	251.1	719.39967057892
0	22049	251.2	719.89906088511
0	22053	251.3	720.39769568804
0	22057	251.4	720.89588667744
0	22061	251.5	721.3942760188
0	22065	251.6	721.89277918028
0	22069	251.7	722.3922588276
0	22082	251.8	722.89123870192
0	22086	251.9	723.39070152298
0	22090	252	723.89029522943
0	22094	252.1	724.38920872908
0	22098	252.2	724.88873599626
0	22102	252.3	725.38800334663
0	22106	252.4	725.88748918906
0	22110	252.5	726.3860189505
0	22114	252.6	726.88542271652
0	22118	252.7	727.38478880141
0	22131	252.8	727.88337952802
0	22135	252.9	728.38248030178
0	22139	253	728.88187256019
0	22143	253.1	729.38064005229
0	22147	253.2	729.88010679196
0	22151	253.3	730.37928493191
0	22155	253.4	730.87876921086
0	22159	253.5	731.37774572099
0	22163	253.6	731.87742854757
0	22167	253.7	732.37621999406
0	22180	253.8	732.87562768164
0	22184	253.9	733.37462054032
0	22188	254	733.87347700504
0	22192	254.1	734.37269985852
0	22196	254.2	734.87234282545
0	22200	254.3	735.37215563078
0	22204	254.4	735.87110736564
0	22208	254.5	736.37018872824
0	22212	254.6	736.86929867996
0	22216	254.7	737.36795252996
0	22229	254.8	737.86738875563
0	22233	254.9	738.36676041699
0	22237	255	738.86561485408
0	22241	255.1	739.36410320331
0	22253	255.2	739.86231224381
0	22257	255.3	740.36076599257
0	22261	255.4	740.85878576015
0	22265	255.5	741.35687426539
0	22269	255.6	741.85452427161
0	22273	255.7	742.35192479511
0	22286	255.8	742.84926576242
0	22290	255.9	743.34675983405
0	22294	256	743.84481688888
0	22298	256.1	744.3437374897
0	22302	256.2	744.84360122303
0	22306	256.3	745.34212975393
0	22310	256.4	745.84107293919
0	22314	256.5	746.3406473505
0	22318	256.6	746.83954766059
0	22322	256.7	747.33838221269
0	22335	256.8	747.83680580688
0	22339	256.9	748.33547173091
0	22343	257	748.83496734439
0	22347	257.1	749.33424918544
0	22351	257.2	749.83343582252
0	22355	257.3	750.33306991129
0	22359	257.4	750.83235775072
0	22363	257.5	751.33127452457
0	22367	257.6	751.83112270596
0	22371	257.7	752.33095352357
0	22384	257.8	752.82997750744
0	22388	257.9	753.32849182748
0	22392	258	753.82669727797
0	22396	258.1	754.32463466816
0	22400	258.2	754.82287927944
0	22404	258.3	755.32132212731
0	22408	258.4	755.8199800766
0	22412	258.5	756.31900119646
0	22416	258.6	756.81873451165
0	22420	258.7	757.31830481469
0	22433	258.8	757.81812313695
0	22437	258.9	758.31737074974
0	22441	259	758.81644997799
0	22445	259.1	759.3151308518
0	22449	259.2	759.81373711043
0	22453	259.3	760.31293085945
0	22457	259.4	760.8124996044
0	22461	259.5	761.3117487982
0	22465	259.6	761.81099962244
0	22469	259.7	762.3106477976
0	22482	259.8	762.80921070851
0	22486	259.9	763.30826789575
0	22490	260	763.80821791044
0	22494	260.1	764.30793251968
0	22506	260.2	764.80757879956
0	22510	260.3	765.30609299076
0	22514	260.4	765.80545260209
0	22518	260.5	766.30459535593
0	22522	260.6	766.80336236728
0	22526	260.7	767.30203015596
0	22539	260.8	767.80020957946
0	22543	260.9	768.29924162808
0	22547	261	768.79900203457
0	22551	261.1	769.29845285824
0	22555	261.2	769.79732500689
0	22559	261.3	770.29585819583
0	22563	261.4	770.7949603163
0	22567	261.5	771.29483365881
0	22571	261.6	771.79434054184
0	22575	261.7	772.294092317
0	22588	261.8	772.79269754485
0	22592	261.9	773.2913646463
0	22596	262	773.78996296305
0	22600	262.1	774.28862709632
0	22604	262.2	774.78707311782
0	22608	262.3	775.28526179877
0	22612	262.4	775.78376833756
0	22616	262.5	776.28187163721
0	22620	262.6	776.78048404283
0	22624	262.7	777.27988346875
0	22637	262.8	777.77967600862
0	22641	262.9	778.2792869479
0	22645	263	778.77834888063
0	22649	263.1	779.27770768853
0	22653	263.2	779.77668793592
0	22657	263.3	780.27666682838
0	22661	263.4	780.77527123223
0	22665	263.5	781.27477091462
0	22669	263.6	781.77458318371
0	22673	263.7	782.2742434468
0	22686	263.8	782.77313785613
0	22690	263.9	783.27231061252
0	22694	264	783.77149080249
0	22698	264.1	784.27111351839
0	22702	264.2	784.77042752323
0	22706	264.3	785.26911250039
0	22710	264.4	785.76766809999
0	22714	264.5	786.26673729027
0	22718	264.6	786.76582637701
0	22722	264.7	787.26443944278
0	22735	264.8	787.76389837689
0	22739	264.9	788.26243619599
0	22743	265	788.7613452805
0	22747	265.1	789.26057957272
0	22759	265.2	789.75908606742
0	22763	265.3	790.25825186891
0	22767	265.4	790.75710053607
0	22771	265.5	791.25651170403
0	22775	265.6	791.75536783346
0	22779	265.7	792.25405946239
0	22792	265.8	792.75236778211
0	22796	265.9	793.25126607727
0	22800	266	793.75007029423
0	22804	266.1	794.24930363689
0	22808	266.2	794.74803165986
0	22812	266.3	795.24704181904
0	22816	266.4	795.74644019392
0	22820	266.5	796.24557752725
0	22824	266.6	796.74497731026
0	22828	266.7	797.24348315961
0	22841	266.8	797.74155346121
0	22845	266.9	798.24027544817
0	22849	267	798.73886119467
0	22853	267.1	799.23791680562
0	22857	267.2	799.73720983244
0	22861	267.3	800.23681549567
0	22865	267.4	800.73608110073
0	22869	267.5	801.23553943057
0	22873	267.6	801.73551454443
0	22877	267.7	802.23536333765
0	22890	267.8	802.73501873726
0	22894	267.9	803.23447902261
0	22898	268	803.73377206934
0	22902	268.1	804.23244027179
0	22906	268.2	804.73166777613
0	22910	268.3	805.23121989136
0	22914	268.4	805.72974716723
0	22918	268.5	806.22871654092
0	22922	268.6	806.72851263128
0	22926	268.7	807.22709592003
0	22939	268.8	807.72592087179
0	22943	268.9	808.22465325504
0	22947	269	808.7243707694
0	22951	269.1	809.22359566133
0	22955	269.2	809.72318688375
0	22959	269.3	810.22202109466
0	22963	269.4	810.72151865926
0	22967	269.5	811.22133388979
0	22971	269.6	811.7204262558
0	22975	269.7	812.21972952028
0	22988	269.8	812.71839869186
0	22992	269.9	813.21789050925
0	22996	270	813.717040844
0	23000	270.1	814.21669041678
0	23012	270.2	814.71572426296
0	23016	270.3	815.21551146207
0	23020	270.4	815.71509157699
0	23024	270.5	816.21454887513
0	23028	270.6	816.7140855754
0	23032	270.7	817.21351311641
0	23045	270.8	817.71276460856
0	23049	270.9	818.21134364569
0	23053	271	818.71006984332
0	23057	271.1	819.20939985235
0	23061	271.2	819.70858035897
0	23065	271.3	820.2078717157
0	23069	271.4	820.70748164618
0	23073	271.5	821.20626457707
0	23077	271.6	821.70582854788
0	23081	271.7	822.2046051215
0	23094	271.8	822.70382913658
0	23098	271.9	823.2027036218
0	23102	272	823.7014019278
0	23106	272.1	824.20066848316
0	23110	272.2	824.69977428362
0	23114	272.3	825.19903182619
0	23118	272.4	825.69875901663
0	23122	272.5	826.19847969923
0	23126	272.6	826.69812987262
0	23130	272.7	827.19784727335
0	23143	272.8	827.69649098501
0	23147	272.9	828.19548093485
0	23151	273	828.69487660292
0	23155	273.1	829.19376871459
0	23159	273.2	829.69238027492
0	23163	273.3	830.19120195885
0	23167	273.4	830.68955743615
0	23171	273.5	831.18758288861
0	23175	273.6	831.68607154013
0	23179	273.7	832.18431382844
0	23192	273.8	832.68353674023
0	23196	273.9	833.18348933206
0	23200	274	833.68239764894
0	23204	274.1	834.18145333724
0	23208	274.2	834.68072518004
0	23212	274.3	835.17981143814
0	23216	274.4	835.67848030543
0	23220	274.5	836.17670681
0	23224	274.6	836.67567947093
0	23228	274.7	837.17561727692
0	23241	274.8	837.6752524056
0	23245	274.9	838.17445574994
0	23249	275	838.67374828734
0	23253	275.1	839.17344111529
0	23265	275.2	839.6732374516
0	23269	275.3	840.17315695724
0	23273	275.4	840.67261645624
0	23277	275.5	841.17173522345
0	23281	275.6	841.67171187787
0	23285	275.7	842.17055297166
0	23298	275.8	842.6691913948
0	23302	275.9	843.16766751977
0	23306	276	843.66699258861
0	23310	276.1	844.16694715599
0	23314	276.2	844.66605336908
0	23318	276.3	845.16544294948
0	23322	276.4	845.6650496025
0	23326	276.5	846.16498283806
0	23330	276.6	846.66493781559
0	23334	276.7	847.16456605762
0	23347	276.8	847.66440151489
0	23351	276.9	848.16411219383
0	23355	277	848.66306337108
0	23359	277.1	849.16269177446
0	23363	277.2	849.66135518099
0	23367	277.3	850.16050990989
0	23371	277.4	850.66042789327
0	23375	277.5	851.16001176621
0	23379	277.6	851.65958961124
0	23383	277.7	852.15814619138
0	23396	277.8	852.65710512395
0	23400	277.9	853.15653544584
0	23404	278	853.65506742192
0	23408	278.1	854.15325813922
0	23412	278.2	854.6517848546
0	23416	278.3	855.15104000748
0	23420	278.4	855.64980271617
0	23424	278.5	856.14841980456
0	23428	278.6	856.64761521313
0	23432	278.7	857.14752319483
0	23445	278.8	857.64682094027
0	23449	278.9	858.14612679843
0	23453	279	858.64488800597
0	23457	279.1	859.14464094784
0	23461	279.2	859.64348790971
0	23465	279.3	860.14211943544
0	23469	279.4	860.64139311213
0	23473	279.5	861.13996738307
0	23477	279.6	861.63916257778
0	23481	279.7	862.13910991672
0	23494	279.8	862.63828720725
0	23498	279.9	863.13688643771
0	23502	280	863.63507864566
0	23506	280.1	864.13311007278

