version 2
run General-0-20180807-17:23:35-20816
attr configname General
attr datetime 20180807-17:23:35
attr experiment General
attr inifile omnetpp.ini
attr iterationvars ""
attr iterationvarsf ""
attr measurement ""
attr network veinsbdi.LightJasonScenario
attr processid 20816
attr repetition 0
attr replication #0
attr resultdir results
attr runnumber 0
attr seedset 0
param *.playgroundSizeX 1000m
param *.playgroundSizeY 1000m
param *.playgroundSizeZ 50m
param *.*.updateInterval 0.1s
param *.manager.host "\"localhost\""
param *.manager.port 9999
param *.manager.autoShutdown false
param *.manager.moduleType "\"org.car2x.veins.nodes.Car\""
param *.manager.moduleName "\"node\""
param *.manager.moduleDisplayString "\"\""
param *.manager.launchConfig "xmldoc(\"demo.launchd.xml\")"
param *.connectionManager.pMax 20mW
param *.connectionManager.sat -89dBm
param *.connectionManager.alpha 2.0
param *.connectionManager.carrierFrequency "5.890e9 Hz"
param *.connectionManager.sendDirect true
param *.connectionManager.maxInterfDist 2600m
param *.node[*].nicType "\"Nic80211p\""
param *.**.nic.mac1609_4.txPower 20mW
param *.**.nic.mac1609_4.bitrate 18Mbps
param *.**.nic.phy80211p.sensitivity -89dBm
param *.**.nic.phy80211p.useThermalNoise true
param *.**.nic.phy80211p.thermalNoise -110dBm
param *.**.nic.phy80211p.decider "xmldoc(\"config.xml\")"
param *.**.nic.phy80211p.analogueModels "xmldoc(\"config.xml\")"
param *.**.nic.phy80211p.usePropagationDelay true
param *.node[*].applType "\"veinsbdi.AgentAppl\""
param *.node[*].appl.dataPriority 2
param *.node[*].veinsmobilityType "\"org.car2x.veins.modules.mobility.traci.TraCIMobility\""
param *.node[*].veinsmobility.x 0
param *.node[*].veinsmobility.y 0
param *.node[*].veinsmobility.z 0
param **.debug true
param **.coreDebug true

vector 0 LightJasonScenario.node[0].veinsmobility posx ETV
vector 1 LightJasonScenario.node[0].veinsmobility posy ETV
vector 2 LightJasonScenario.node[1].veinsmobility posx ETV
vector 3 LightJasonScenario.node[1].veinsmobility posy ETV
vector 4 LightJasonScenario.node[0].veinsmobility speed ETV
vector 5 LightJasonScenario.node[1].veinsmobility speed ETV
vector 6 LightJasonScenario.node[0].veinsmobility acceleration ETV
vector 7 LightJasonScenario.node[0].veinsmobility co2emission ETV
vector 8 LightJasonScenario.node[1].veinsmobility acceleration ETV
vector 9 LightJasonScenario.node[1].veinsmobility co2emission ETV
0	203	10.1	27.1
0	207	10.2	27.1
0	213	10.3	27.100911073308
0	219	10.4	27.102580128556
0	240	10.5	27.104905698165
0	246	10.6	27.10780862858
0	252	10.7	27.111346500138
0	273	10.8	27.115622730472
0	279	10.9	27.12066348164
0	285	11	27.126652844462
0	291	11.1	27.133356353219
0	297	11.2	27.14050790737
0	303	11.3	27.147666395918
0	309	11.4	27.155237501228
0	330	11.5	27.163303616563
0	336	11.6	27.171232733917
0	342	11.7	27.179709953782
0	363	11.8	27.18826574354
0	369	11.9	27.19729370749
0	375	12	27.20588593871
0	381	12.1	27.215276228363
0	387	12.2	27.224361387139
0	393	12.3	27.233736133856
0	399	12.4	27.242909514444
0	420	12.5	27.252302178811
0	426	12.6	27.261676523877
0	432	12.7	27.270969919966
0	453	12.8	27.280390286368
0	459	12.9	27.290004592928
0	465	13	27.299480976057
0	471	13.1	27.309798497777
0	477	13.2	27.320405618862
0	483	13.3	27.331733241431
0	489	13.4	27.342955486733
0	510	13.5	27.3548529065
0	516	13.6	27.367547499007
0	522	13.7	27.380755880007
0	543	13.8	27.394739748712
0	549	13.9	27.409390135339
0	555	14	27.424460788498
0	561	14.1	27.439177543951
0	567	14.2	27.454219374419
0	573	14.3	27.469341609695
0	579	14.4	27.484110322103
0	600	14.5	27.499730113984
0	606	14.6	27.514895192261
0	612	14.7	27.530080560491
0	633	14.8	27.546009564341
0	639	14.9	27.562401339937
0	645	15	27.578667086323
0	651	15.1	27.59502108671
0	686	15.2	27.611887516256
0	692	15.3	27.629696307663
0	698	15.4	27.64755368799
0	719	15.5	27.664972644414
0	725	15.6	27.682412415359
0	731	15.7	27.699899597988
0	752	15.8	27.716893831269
0	758	15.9	27.734015289052
0	764	16	27.751515193953
0	770	16.1	27.769303052596
0	776	16.2	27.78715564608
0	782	16.3	27.805501228138
0	788	16.4	27.823834681712
0	809	16.5	27.84269233267
0	815	16.6	27.861382465404
0	821	16.7	27.879648241562
0	842	16.8	27.897920227417
0	848	16.9	27.91717185581
0	854	17	27.936489215063
0	860	17.1	27.955796084869
0	866	17.2	27.974645037177
0	872	17.3	27.993176699282
0	878	17.4	28.011943924829
0	899	17.5	28.031627578337
0	905	17.6	28.051634493024
0	911	17.7	28.072611426203
0	932	17.8	28.093925792999
0	938	17.9	28.1147707797
0	944	18	28.136076599697
0	950	18.1	28.15766107939
0	956	18.2	28.179212567303
0	962	18.3	28.200443341377
0	968	18.4	28.221296762241
0	989	18.5	28.242824949906
0	995	18.6	28.264505354272
0	1001	18.7	28.285888104793
0	1022	18.8	28.307507401871
0	1028	18.9	28.328751614515
0	1034	19	28.349614090741
0	1040	19.1	28.371351898237
0	1046	19.2	28.393673127887
0	1052	19.3	28.416980322484
0	1058	19.4	28.440024003963
0	1079	19.5	28.463096924234
0	1085	19.6	28.485907765321
0	1091	19.7	28.509321511162
0	1112	19.8	28.533138525876
0	1118	19.9	28.557126308363
0	1124	20	28.581866680159
0	1130	20.1	28.607052339812
0	1165	20.2	28.63301833682
0	1171	20.3	28.659129906221
0	1177	20.4	28.685185869701
0	1198	20.5	28.711809118533
0	1204	20.6	28.738782435268
0	1210	20.7	28.765621591967
0	1231	20.8	28.792866601248
0	1237	20.9	28.819767552945
0	1243	21	28.846710123022
0	1249	21.1	28.873315361453
0	1255	21.2	28.899900516525
0	1261	21.3	28.926811874998
0	1267	21.4	28.953255377086
0	1288	21.5	28.980524576309
0	1294	21.6	29.007643239978
0	1300	21.7	29.035144173434
0	1321	21.8	29.062631948274
0	1327	21.9	29.090745028702
0	1333	22	29.119388281631
0	1339	22.1	29.147583410233
0	1345	22.2	29.175895841209
0	1351	22.3	29.204218769565
0	1357	22.4	29.232741888542
0	1378	22.5	29.261919207985
0	1384	22.6	29.29150422349
0	1390	22.7	29.321161026154
0	1411	22.8	29.351105527535
0	1417	22.9	29.381344830633
0	1423	23	29.411510021931
0	1429	23.1	29.442243226723
0	1435	23.2	29.473401238177
0	1441	23.3	29.504435494876
0	1447	23.4	29.535152073288
0	1468	23.5	29.566714356661
0	1474	23.6	29.599138079204
0	1480	23.7	29.63203073175
0	1501	23.8	29.665095659913
0	1507	23.9	29.699110150436
0	1513	24	29.73267119831
0	1519	24.1	29.766750750318
0	1525	24.2	29.801498408302
0	1531	24.3	29.837034170432
0	1537	24.4	29.873424042672
0	1558	24.5	29.909337851558
0	1564	24.6	29.945861149052
0	1570	24.7	29.98257891277
0	1591	24.8	30.019624787228
0	1597	24.9	30.057521308058
0	1603	25	30.095889361397
0	1609	25.1	30.134553540979
0	1644	25.2	30.172956010366
0	1650	25.3	30.211001508137
0	1656	25.4	30.249990666831
0	1677	25.5	30.28921735235
0	1683	25.6	30.329193766591
0	1689	25.7	30.369001604306
0	1710	25.8	30.408512042081
0	1716	25.9	30.44840538477
0	1722	26	30.489088768583
0	1728	26.1	30.530722318818
0	1734	26.2	30.571882006617
0	1740	26.3	30.613481758287
0	1746	26.4	30.655451396905
0	1767	26.5	30.698345153355
0	1773	26.6	30.741690665654
0	1779	26.7	30.786011236
0	1800	26.8	30.830985692833
0	1806	26.9	30.875812782119
0	1812	27	30.920223686125
0	1818	27.1	30.964509591258
0	1824	27.2	31.009286390668
0	1830	27.3	31.054328866664
0	1836	27.4	31.099862864986
0	1857	27.5	31.146127627905
0	1863	27.6	31.193135910936
0	1869	27.7	31.240449017502
0	1890	27.8	31.287450264626
0	1896	27.9	31.334035332122
0	1902	28	31.380708020318
0	1908	28.1	31.427485725394
0	1914	28.2	31.474087964098
0	1920	28.3	31.520940163361
0	1926	28.4	31.568716807536
0	1947	28.5	31.616444804595
0	1953	28.6	31.663684207061
0	1959	28.7	31.711522715725
0	1980	28.8	31.759342588462
0	1986	28.9	31.806866039036
0	1992	29	31.854263223239
0	1998	29.1	31.901213672793
0	2004	29.2	31.948332758693
0	2010	29.3	31.996133258841
0	2016	29.4	32.044600094153
0	2037	29.5	32.093738805413
0	2043	29.6	32.143023156376
0	2049	29.7	32.192629343781
0	2070	29.8	32.241780176159
0	2076	29.9	32.290910191496
0	2082	30	32.340912263482
0	2088	30.1	32.391829707967
0	2123	30.2	32.443015395892
0	2129	30.3	32.493879576979
0	2135	30.4	32.544279151481
0	2156	30.5	32.594752239104
0	2162	30.6	32.645411578562
0	2168	30.7	32.695788997645
0	2189	30.8	32.746050664915
0	2195	30.9	32.796594437695
0	2201	31	32.84712258811
0	2207	31.1	32.897740170934
0	2213	31.2	32.948285708359
0	2219	31.3	32.999127000003
0	2225	31.4	33.050284269711
0	2246	31.5	33.101081912286
0	2252	31.6	33.15267372423
0	2258	31.7	33.204921707189
0	2279	31.8	33.256847312043
0	2285	31.9	33.30841627943
0	2291	32	33.360016569918
0	2297	32.1	33.412129835947
0	2303	32.2	33.464463535187
0	2309	32.3	33.517797151402
0	2315	32.4	33.571662977287
0	2336	32.5	33.625890625865
0	2342	32.6	33.679790267947
0	2348	32.7	33.733670090846
0	2369	32.8	33.787865719087
0	2375	32.9	33.842336234402
0	2381	33	33.896623640584
0	2387	33.1	33.951566884023
0	2393	33.2	34.006189681055
0	2399	33.3	34.061341939491
0	2405	33.4	34.116058021643
0	2426	33.5	34.171066476432
0	2432	33.6	34.226007555488
0	2438	33.7	34.281718093089
0	2459	33.8	34.337332967418
0	2465	33.9	34.392978445096
0	2471	34	34.449301601669
0	2477	34.1	34.506345070913
0	2483	34.2	34.56317716976
0	2489	34.3	34.619888649401
0	2495	34.4	34.676587858025
0	2516	34.5	34.73387172602
0	2522	34.6	34.791893230706
0	2528	34.7	34.849858024
0	2549	34.8	34.908128092
0	2555	34.9	34.966137517196
0	2561	35	35.02483964375
0	2567	35.1	35.084294331997
0	2602	35.2	35.144561770652
0	2608	35.3	35.204746088317
0	2614	35.4	35.265884726532
0	2635	35.5	35.326902873391
0	2641	35.6	35.388782126013
0	2647	35.7	35.451335202892
0	2668	35.8	35.513764398147
0	2674	35.9	35.576096052764
0	2680	36	35.639359285427
0	2686	36.1	35.703308782548
0	2692	36.2	35.767827907101
0	2698	36.3	35.832331136694
0	2704	36.4	35.897739808848
0	2725	36.5	35.963315007146
0	2731	36.6	36.029876345339
0	2737	36.7	36.09618812639
0	2758	36.8	36.16202341329
0	2764	36.9	36.227803458012
0	2770	37	36.294311055925
0	2776	37.1	36.36105006364
0	2782	37.2	36.42791840066
0	2788	37.3	36.494605424449
0	2794	37.4	36.561382735045
0	2815	37.5	36.628832441369
0	2821	37.6	36.696599394467
0	2827	37.7	36.764048042957
0	2848	37.8	36.831758289087
0	2854	37.9	36.899395193488
0	2860	38	36.967302858552
0	2866	38.1	37.035147701393
0	2872	38.2	37.10324533389
0	2878	38.3	37.171076141271
0	2884	38.4	37.239615435323
0	2905	38.5	37.307994740353
0	2911	38.6	37.37591265738
0	2917	38.7	37.443537109737
0	2938	38.8	37.510990922119
0	2944	38.9	37.577967186081
0	2950	39	37.644813095637
0	2956	39.1	37.712652933033
0	2962	39.2	37.781088551276
0	2968	39.3	37.849908431306
0	2974	39.4	37.919085975596
0	2995	39.5	37.988816757153
0	3001	39.6	38.058945840197
0	3007	39.7	38.129893937747
0	3028	39.8	38.200370985787
0	3034	39.9	38.271238853096
1	203	10.1	29.95
1	207	10.2	29.95
1	213	10.3	29.95
1	219	10.4	29.95
1	240	10.5	29.95
1	246	10.6	29.95
1	252	10.7	29.95
1	273	10.8	29.95
1	279	10.9	29.95
1	285	11	29.95
1	291	11.1	29.95
1	297	11.2	29.95
1	303	11.3	29.95
1	309	11.4	29.95
1	330	11.5	29.95
1	336	11.6	29.95
1	342	11.7	29.95
1	363	11.8	29.95
1	369	11.9	29.95
1	375	12	29.95
1	381	12.1	29.95
1	387	12.2	29.95
1	393	12.3	29.95
1	399	12.4	29.95
1	420	12.5	29.95
1	426	12.6	29.95
1	432	12.7	29.95
1	453	12.8	29.95
1	459	12.9	29.95
1	465	13	29.95
1	471	13.1	29.95
1	477	13.2	29.95
1	483	13.3	29.95
1	489	13.4	29.95
1	510	13.5	29.95
1	516	13.6	29.95
1	522	13.7	29.95
1	543	13.8	29.95
1	549	13.9	29.95
1	555	14	29.95
1	561	14.1	29.95
1	567	14.2	29.95
1	573	14.3	29.95
1	579	14.4	29.95
1	600	14.5	29.95
1	606	14.6	29.95
1	612	14.7	29.95
1	633	14.8	29.95
1	639	14.9	29.95
1	645	15	29.95
1	651	15.1	29.95
1	686	15.2	29.95
1	692	15.3	29.95
1	698	15.4	29.95
1	719	15.5	29.95
1	725	15.6	29.95
1	731	15.7	29.95
1	752	15.8	29.95
1	758	15.9	29.95
1	764	16	29.95
1	770	16.1	29.95
1	776	16.2	29.95
1	782	16.3	29.95
1	788	16.4	29.95
1	809	16.5	29.95
1	815	16.6	29.95
1	821	16.7	29.95
1	842	16.8	29.95
1	848	16.9	29.95
1	854	17	29.95
1	860	17.1	29.95
1	866	17.2	29.95
1	872	17.3	29.95
1	878	17.4	29.95
1	899	17.5	29.95
1	905	17.6	29.95
1	911	17.7	29.95
1	932	17.8	29.95
1	938	17.9	29.95
1	944	18	29.95
1	950	18.1	29.95
1	956	18.2	29.95
1	962	18.3	29.95
1	968	18.4	29.95
1	989	18.5	29.95
1	995	18.6	29.95
1	1001	18.7	29.95
1	1022	18.8	29.95
1	1028	18.9	29.95
1	1034	19	29.95
1	1040	19.1	29.95
1	1046	19.2	29.95
1	1052	19.3	29.95
1	1058	19.4	29.95
1	1079	19.5	29.95
1	1085	19.6	29.95
1	1091	19.7	29.95
1	1112	19.8	29.95
1	1118	19.9	29.95
1	1124	20	29.95
1	1130	20.1	29.95
1	1165	20.2	29.95
1	1171	20.3	29.95
1	1177	20.4	29.95
1	1198	20.5	29.95
1	1204	20.6	29.95
1	1210	20.7	29.95
1	1231	20.8	29.95
1	1237	20.9	29.95
1	1243	21	29.95
1	1249	21.1	29.95
1	1255	21.2	29.95
1	1261	21.3	29.95
1	1267	21.4	29.95
1	1288	21.5	29.95
1	1294	21.6	29.95
1	1300	21.7	29.95
1	1321	21.8	29.95
1	1327	21.9	29.95
1	1333	22	29.95
1	1339	22.1	29.95
1	1345	22.2	29.95
1	1351	22.3	29.95
1	1357	22.4	29.95
1	1378	22.5	29.95
1	1384	22.6	29.95
1	1390	22.7	29.95
1	1411	22.8	29.95
1	1417	22.9	29.95
1	1423	23	29.95
1	1429	23.1	29.95
1	1435	23.2	29.95
1	1441	23.3	29.95
1	1447	23.4	29.95
1	1468	23.5	29.95
1	1474	23.6	29.95
1	1480	23.7	29.95
1	1501	23.8	29.95
1	1507	23.9	29.95
1	1513	24	29.95
1	1519	24.1	29.95
1	1525	24.2	29.95
1	1531	24.3	29.95
1	1537	24.4	29.95
1	1558	24.5	29.95
1	1564	24.6	29.95
1	1570	24.7	29.95
1	1591	24.8	29.95
1	1597	24.9	29.95
1	1603	25	29.95
1	1609	25.1	29.95
1	1644	25.2	29.95
1	1650	25.3	29.95
1	1656	25.4	29.95
1	1677	25.5	29.95
1	1683	25.6	29.95
1	1689	25.7	29.95
1	1710	25.8	29.95
1	1716	25.9	29.95
1	1722	26	29.95
1	1728	26.1	29.95
1	1734	26.2	29.95
1	1740	26.3	29.95
1	1746	26.4	29.95
1	1767	26.5	29.95
1	1773	26.6	29.95
1	1779	26.7	29.95
1	1800	26.8	29.95
1	1806	26.9	29.95
1	1812	27	29.95
1	1818	27.1	29.95
1	1824	27.2	29.95
1	1830	27.3	29.95
1	1836	27.4	29.95
1	1857	27.5	29.95
1	1863	27.6	29.95
1	1869	27.7	29.95
1	1890	27.8	29.95
1	1896	27.9	29.95
1	1902	28	29.95
1	1908	28.1	29.95
1	1914	28.2	29.95
1	1920	28.3	29.95
1	1926	28.4	29.95
1	1947	28.5	29.95
1	1953	28.6	29.95
1	1959	28.7	29.95
1	1980	28.8	29.95
1	1986	28.9	29.95
1	1992	29	29.95
1	1998	29.1	29.95
1	2004	29.2	29.95
1	2010	29.3	29.95
1	2016	29.4	29.95
1	2037	29.5	29.95
1	2043	29.6	29.95
1	2049	29.7	29.95
1	2070	29.8	29.95
1	2076	29.9	29.95
1	2082	30	29.95
1	2088	30.1	29.95
1	2123	30.2	29.95
1	2129	30.3	29.95
1	2135	30.4	29.95
1	2156	30.5	29.95
1	2162	30.6	29.95
1	2168	30.7	29.95
1	2189	30.8	29.95
1	2195	30.9	29.95
1	2201	31	29.95
1	2207	31.1	29.95
1	2213	31.2	29.95
1	2219	31.3	29.95
1	2225	31.4	29.95
1	2246	31.5	29.95
1	2252	31.6	29.95
1	2258	31.7	29.95
1	2279	31.8	29.95
1	2285	31.9	29.95
1	2291	32	29.95
1	2297	32.1	29.95
1	2303	32.2	29.95
1	2309	32.3	29.95
1	2315	32.4	29.95
1	2336	32.5	29.95
1	2342	32.6	29.95
1	2348	32.7	29.95
1	2369	32.8	29.95
1	2375	32.9	29.95
1	2381	33	29.95
1	2387	33.1	29.95
1	2393	33.2	29.95
1	2399	33.3	29.95
1	2405	33.4	29.95
1	2426	33.5	29.95
1	2432	33.6	29.95
1	2438	33.7	29.95
1	2459	33.8	29.95
1	2465	33.9	29.95
1	2471	34	29.95
1	2477	34.1	29.95
1	2483	34.2	29.95
1	2489	34.3	29.95
1	2495	34.4	29.95
1	2516	34.5	29.95
1	2522	34.6	29.95
1	2528	34.7	29.95
1	2549	34.8	29.95
1	2555	34.9	29.95
1	2561	35	29.95
1	2567	35.1	29.95
1	2602	35.2	29.95
1	2608	35.3	29.95
1	2614	35.4	29.95
1	2635	35.5	29.95
1	2641	35.6	29.95
1	2647	35.7	29.95
1	2668	35.8	29.95
1	2674	35.9	29.95
1	2680	36	29.95
1	2686	36.1	29.95
1	2692	36.2	29.95
1	2698	36.3	29.95
1	2704	36.4	29.95
1	2725	36.5	29.95
1	2731	36.6	29.95
1	2737	36.7	29.95
1	2758	36.8	29.95
1	2764	36.9	29.95
1	2770	37	29.95
1	2776	37.1	29.95
1	2782	37.2	29.95
1	2788	37.3	29.95
1	2794	37.4	29.95
1	2815	37.5	29.95
1	2821	37.6	29.95
1	2827	37.7	29.95
1	2848	37.8	29.95
1	2854	37.9	29.95
1	2860	38	29.95
1	2866	38.1	29.95
1	2872	38.2	29.95
1	2878	38.3	29.95
1	2884	38.4	29.95
1	2905	38.5	29.95
1	2911	38.6	29.95
1	2917	38.7	29.95
1	2938	38.8	29.95
1	2944	38.9	29.95
1	2950	39	29.95
1	2956	39.1	29.95
1	2962	39.2	29.95
1	2968	39.3	29.95
1	2974	39.4	29.95
1	2995	39.5	29.95
1	3001	39.6	29.95
1	3007	39.7	29.95
1	3028	39.8	29.95
1	3034	39.9	29.95
2	203	10.1	27.1
2	207	10.2	27.1
2	213	10.3	27.10094511865
2	219	10.4	27.102751124482
2	240	10.5	27.105387994562
2	246	10.6	27.108826697708
2	252	10.7	27.113077353067
2	273	10.8	27.117988871687
2	279	10.9	27.123641709812
2	285	11	27.129701265795
2	291	11.1	27.136080518654
2	297	11.2	27.143176820319
2	303	11.3	27.150632117514
2	309	11.4	27.158640218334
2	330	11.5	27.167136618884
2	336	11.6	27.175754035797
2	342	11.7	27.18530313437
2	363	11.8	27.195765103646
2	369	11.9	27.207206854523
2	375	12	27.218815985557
2	381	12.1	27.230646959834
2	387	12.2	27.242607921966
2	393	12.3	27.254590265755
2	399	12.4	27.26677345098
2	420	12.5	27.279495156843
2	426	12.6	27.29243633353
2	432	12.7	27.306259235793
2	453	12.8	27.320442217039
2	459	12.9	27.335481844999
2	465	13	27.350576804041
2	471	13.1	27.366149914755
2	477	13.2	27.382308363528
2	483	13.3	27.399202256689
2	489	13.4	27.416321916164
2	510	13.5	27.433985425302
2	516	13.6	27.452080500493
2	522	13.7	27.471156785885
2	543	13.8	27.490615435777
2	549	13.9	27.510461989946
2	555	14	27.530691610116
2	561	14.1	27.550977482211
2	567	14.2	27.571581534009
2	573	14.3	27.592826077904
2	579	14.4	27.614633589847
2	600	14.5	27.636743470594
2	606	14.6	27.659793125874
2	612	14.7	27.683176014444
2	633	14.8	27.70688826514
2	639	14.9	27.731390133274
2	645	15	27.756763075109
2	651	15.1	27.782820588595
2	686	15.2	27.809514391308
2	692	15.3	27.836637997245
2	698	15.4	27.864323001668
2	719	15.5	27.892019632259
2	725	15.6	27.920614218044
2	731	15.7	27.94999992707
2	752	15.8	27.980224326585
2	758	15.9	28.010795617778
2	764	16	28.042113617369
2	770	16.1	28.073965306188
2	776	16.2	28.106572569418
2	782	16.3	28.140020863063
2	788	16.4	28.174358781568
2	809	16.5	28.20904037048
2	815	16.6	28.244583776444
2	821	16.7	28.280930600051
2	842	16.8	28.317908698492
2	848	16.9	28.355065803702
2	854	17	28.393125807641
2	860	17.1	28.431347866673
2	866	17.2	28.470473827304
2	872	17.3	28.50962332847
2	878	17.4	28.549304178438
2	899	17.5	28.589008267315
2	905	17.6	28.629107510674
2	911	17.7	28.669467490451
2	932	17.8	28.71078828244
2	938	17.9	28.752826267469
2	944	18	28.795744055933
2	950	18.1	28.839365704199
2	956	18.2	28.883868624749
2	962	18.3	28.929053562127
2	968	18.4	28.974824236516
2	989	18.5	29.021530763404
2	995	18.6	29.068544818173
2	1001	18.7	29.115992271494
2	1022	18.8	29.164174335323
2	1028	18.9	29.212833151099
2	1034	19	29.26239802637
2	1040	19.1	29.312386955145
2	1046	19.2	29.362446587722
2	1052	19.3	29.413187651345
2	1058	19.4	29.464261304591
2	1079	19.5	29.516203159975
2	1085	19.6	29.568428688161
2	1091	19.7	29.621364810257
2	1112	19.8	29.675117740989
2	1118	19.9	29.729284158787
2	1124	20	29.784430469036
2	1130	20.1	29.839747839256
2	1165	20.2	29.896060513994
2	1171	20.3	29.952695372192
2	1177	20.4	30.010060222422
2	1198	20.5	30.067689878632
2	1204	20.6	30.125357346296
2	1210	20.7	30.183776060821
2	1231	20.8	30.24261861801
2	1237	20.9	30.301869133273
2	1243	21	30.361547396634
2	1249	21.1	30.422002578364
2	1255	21.2	30.482505011085
2	1261	21.3	30.543560318428
2	1267	21.4	30.604769217104
2	1288	21.5	30.666278636503
2	1294	21.6	30.72849061895
2	1300	21.7	30.790888803578
2	1321	21.8	30.853890482467
2	1327	21.9	30.917011058155
2	1333	22	30.980550360967
2	1339	22.1	31.04420792842
2	1345	22.2	31.108172964281
2	1351	22.3	31.17241274586
2	1357	22.4	31.237151203057
2	1378	22.5	31.301933576613
2	1384	22.6	31.367071959974
2	1390	22.7	31.43278648829
2	1411	22.8	31.498894623389
2	1417	22.9	31.565983565288
2	1423	23	31.633770932371
2	1429	23.1	31.701898125915
2	1435	23.2	31.770735241849
2	1441	23.3	31.839954342357
2	1447	23.4	31.909744674165
2	1468	23.5	31.980399531906
2	1474	23.6	32.051756107318
2	1480	23.7	32.123542717819
2	1501	23.8	32.195738455557
2	1507	23.9	32.268359868039
2	1513	24	32.341328079705
2	1519	24.1	32.414644188097
2	1525	24.2	32.488528878055
2	1531	24.3	32.562517021415
2	1537	24.4	32.637137602902
2	1558	24.5	32.712322319471
2	1564	24.6	32.787615112681
2	1570	24.7	32.8631017119
2	1591	24.8	32.938884422532
2	1597	24.9	33.015566906279
2	1603	25	33.092329907412
2	1609	25.1	33.169378667247
2	1644	25.2	33.246428580079
2	1650	25.3	33.324329044607
2	1656	25.4	33.402361383074
2	1677	25.5	33.481231228609
2	1683	25.6	33.560485514577
2	1689	25.7	33.640615980563
2	1710	25.8	33.720898438321
2	1716	25.9	33.801373577119
2	1722	26	33.882279615173
2	1728	26.1	33.963778469929
2	1734	26.2	34.046208157695
2	1740	26.3	34.128940416688
2	1746	26.4	34.212219133001
2	1767	26.5	34.295775793709
2	1773	26.6	34.379466072091
2	1779	26.7	34.463180828961
2	1800	26.8	34.547039782488
2	1806	26.9	34.631887021933
2	1812	27	34.717374283319
2	1818	27.1	34.803131554144
2	1824	27.2	34.889717195291
2	1830	27.3	34.976781799835
2	1836	27.4	35.064792066393
2	1857	27.5	35.153602336425
2	1863	27.6	35.243394084664
2	1869	27.7	35.333392135199
2	1890	27.8	35.424166261053
2	1896	27.9	35.515595035227
2	1902	28	35.607095728109
2	1908	28.1	35.698892006592
2	1914	28.2	35.791656446151
2	1920	28.3	35.885256191553
2	1926	28.4	35.979234458549
2	1947	28.5	36.073635496959
2	1953	28.6	36.168798642554
2	1959	28.7	36.264027574148
2	1980	28.8	36.359642539789
2	1986	28.9	36.455721872633
2	1992	29	36.552211295499
2	1998	29.1	36.648970596339
2	2004	29.2	36.746417952183
2	2010	29.3	36.84446708696
2	2016	29.4	36.943306377982
2	2037	29.5	37.042959476
2	2043	29.6	37.142668201628
2	2049	29.7	37.242637376461
2	2070	29.8	37.343116092491
2	2076	29.9	37.444367393892
2	2082	30	37.546364338811
2	2088	30.1	37.649303254567
2	2123	30.2	37.752807753694
2	2129	30.3	37.857000456944
2	2135	30.4	37.961496816708
2	2156	30.5	38.063993176473
2	2162	30.6	38.164489536237
2	2168	30.7	38.262985896002
2	2189	30.8	38.359482255766
2	2195	30.9	38.453978615531
2	2201	31	38.546474975295
2	2207	31.1	38.63697133506
2	2213	31.2	38.725467694824
2	2219	31.3	38.811964054589
2	2225	31.4	38.896460414353
2	2246	31.5	38.978956774118
2	2252	31.6	39.059453133882
2	2258	31.7	39.137949493647
2	2279	31.8	39.214445853411
2	2285	31.9	39.288942213176
2	2291	32	39.36143857294
2	2297	32.1	39.431934932705
2	2303	32.2	39.500431292469
2	2309	32.3	39.566927652234
2	2315	32.4	39.631424011998
2	2336	32.5	39.693920371763
2	2342	32.6	39.754416731527
2	2348	32.7	39.812913091292
2	2369	32.8	39.869409451056
2	2375	32.9	39.923905810821
2	2381	33	39.976402170586
2	2387	33.1	40.02689853035
2	2393	33.2	40.076167674547
2	2399	33.3	40.125913732902
2	2405	33.4	40.175700420927
2	2426	33.5	40.225182220216
2	2432	33.6	40.275156557502
2	2438	33.7	40.324949087424
2	2459	33.8	40.374524401958
2	2465	33.9	40.42415023198
2	2471	34	40.473686656557
2	2477	34.1	40.523409027849
2	2483	34.2	40.572822243503
2	2489	34.3	40.621958387902
2	2495	34.4	40.671840856045
2	2516	34.5	40.721323476934
2	2522	34.6	40.771191408824
2	2528	34.7	40.820474549144
2	2549	34.8	40.87007848944
2	2555	34.9	40.919513068133
2	2561	35	40.969329788293
2	2567	35.1	41.01918494053
2	2602	35.2	41.068696884246
2	2608	35.3	41.118341271511
2	2614	35.4	41.167400839559
2	2635	35.5	41.216635514307
2	2641	35.6	41.265886850682
2	2647	35.7	41.314983130943
2	2668	35.8	41.364899708508
2	2674	35.9	41.414347516037
2	2680	36	41.463763039964
2	2686	36.1	41.512801103581
2	2692	36.2	41.56250895605
2	2698	36.3	41.612268127273
2	2704	36.4	41.662167833328
2	2725	36.5	41.712151403697
2	2731	36.6	41.761221874379
2	2737	36.7	41.810551957837
2	2758	36.8	41.859766804926
2	2764	36.9	41.909485074822
2	2770	37	41.958898664652
2	2776	37.1	42.008834709386
2	2782	37.2	42.058349081793
2	2788	37.3	42.107371586658
2	2794	37.4	42.156495081415
2	2815	37.5	42.206156922459
2	2821	37.6	42.255195352301
2	2827	37.7	42.304963650676
2	2848	37.8	42.354014331854
2	2854	37.9	42.403072954149
2	2860	38	42.452273751564
2	2866	38.1	42.501643303629
2	2872	38.2	42.550769015659
2	2878	38.3	42.600475995375
2	2884	38.4	42.649627051821
2	2905	38.5	42.699009175129
2	2911	38.6	42.748995938272
2	2917	38.7	42.79864870476
2	2938	38.8	42.8485005639
2	2944	38.9	42.897518734513
2	2950	39	42.947040364207
2	2956	39.1	42.996542972839
2	2962	39.2	43.045903500323
2	2968	39.3	43.09553491572
2	2974	39.4	43.145398015446
2	2995	39.5	43.194575897711
2	3001	39.6	43.244386049797
2	3007	39.7	43.293874730815
2	3028	39.8	43.343650413791
2	3034	39.9	43.393552569305
3	203	10.1	26.65
3	207	10.2	26.65
3	213	10.3	26.65
3	219	10.4	26.65
3	240	10.5	26.65
3	246	10.6	26.65
3	252	10.7	26.65
3	273	10.8	26.65
3	279	10.9	26.65
3	285	11	26.65
3	291	11.1	26.65
3	297	11.2	26.65
3	303	11.3	26.65
3	309	11.4	26.65
3	330	11.5	26.65
3	336	11.6	26.65
3	342	11.7	26.65
3	363	11.8	26.65
3	369	11.9	26.65
3	375	12	26.65
3	381	12.1	26.65
3	387	12.2	26.65
3	393	12.3	26.65
3	399	12.4	26.65
3	420	12.5	26.65
3	426	12.6	26.65
3	432	12.7	26.65
3	453	12.8	26.65
3	459	12.9	26.65
3	465	13	26.65
3	471	13.1	26.65
3	477	13.2	26.65
3	483	13.3	26.65
3	489	13.4	26.65
3	510	13.5	26.65
3	516	13.6	26.65
3	522	13.7	26.65
3	543	13.8	26.65
3	549	13.9	26.65
3	555	14	26.65
3	561	14.1	26.65
3	567	14.2	26.65
3	573	14.3	26.65
3	579	14.4	26.65
3	600	14.5	26.65
3	606	14.6	26.65
3	612	14.7	26.65
3	633	14.8	26.65
3	639	14.9	26.65
3	645	15	26.65
3	651	15.1	26.65
3	686	15.2	26.65
3	692	15.3	26.65
3	698	15.4	26.65
3	719	15.5	26.65
3	725	15.6	26.65
3	731	15.7	26.65
3	752	15.8	26.65
3	758	15.9	26.65
3	764	16	26.65
3	770	16.1	26.65
3	776	16.2	26.65
3	782	16.3	26.65
3	788	16.4	26.65
3	809	16.5	26.65
3	815	16.6	26.65
3	821	16.7	26.65
3	842	16.8	26.65
3	848	16.9	26.65
3	854	17	26.65
3	860	17.1	26.65
3	866	17.2	26.65
3	872	17.3	26.65
3	878	17.4	26.65
3	899	17.5	26.65
3	905	17.6	26.65
3	911	17.7	26.65
3	932	17.8	26.65
3	938	17.9	26.65
3	944	18	26.65
3	950	18.1	26.65
3	956	18.2	26.65
3	962	18.3	26.65
3	968	18.4	26.65
3	989	18.5	26.65
3	995	18.6	26.65
3	1001	18.7	26.65
3	1022	18.8	26.65
3	1028	18.9	26.65
3	1034	19	26.65
3	1040	19.1	26.65
3	1046	19.2	26.65
3	1052	19.3	26.65
3	1058	19.4	26.65
3	1079	19.5	26.65
3	1085	19.6	26.65
3	1091	19.7	26.65
3	1112	19.8	26.65
3	1118	19.9	26.65
3	1124	20	26.65
3	1130	20.1	26.65
3	1165	20.2	26.65
3	1171	20.3	26.65
3	1177	20.4	26.65
3	1198	20.5	26.65
3	1204	20.6	26.65
3	1210	20.7	26.65
3	1231	20.8	26.65
3	1237	20.9	26.65
3	1243	21	26.65
3	1249	21.1	26.65
3	1255	21.2	26.65
3	1261	21.3	26.65
3	1267	21.4	26.65
3	1288	21.5	26.65
3	1294	21.6	26.65
3	1300	21.7	26.65
3	1321	21.8	26.65
3	1327	21.9	26.65
3	1333	22	26.65
3	1339	22.1	26.65
3	1345	22.2	26.65
3	1351	22.3	26.65
3	1357	22.4	26.65
3	1378	22.5	26.65
3	1384	22.6	26.65
3	1390	22.7	26.65
3	1411	22.8	26.65
3	1417	22.9	26.65
3	1423	23	26.65
3	1429	23.1	26.65
3	1435	23.2	26.65
3	1441	23.3	26.65
3	1447	23.4	26.65
3	1468	23.5	26.65
3	1474	23.6	26.65
3	1480	23.7	26.65
3	1501	23.8	26.65
3	1507	23.9	26.65
3	1513	24	26.65
3	1519	24.1	26.65
3	1525	24.2	26.65
3	1531	24.3	26.65
3	1537	24.4	26.65
3	1558	24.5	26.65
3	1564	24.6	26.65
3	1570	24.7	26.65
3	1591	24.8	26.65
3	1597	24.9	26.65
3	1603	25	26.65
3	1609	25.1	26.65
3	1644	25.2	26.65
3	1650	25.3	26.65
3	1656	25.4	26.65
3	1677	25.5	26.65
3	1683	25.6	26.65
3	1689	25.7	26.65
3	1710	25.8	26.65
3	1716	25.9	26.65
3	1722	26	26.65
3	1728	26.1	26.65
3	1734	26.2	26.65
3	1740	26.3	26.65
3	1746	26.4	26.65
3	1767	26.5	26.65
3	1773	26.6	26.65
3	1779	26.7	26.65
3	1800	26.8	26.65
3	1806	26.9	26.65
3	1812	27	26.65
3	1818	27.1	26.65
3	1824	27.2	26.65
3	1830	27.3	26.65
3	1836	27.4	26.65
3	1857	27.5	26.65
3	1863	27.6	26.65
3	1869	27.7	26.65
3	1890	27.8	26.65
3	1896	27.9	26.65
3	1902	28	26.65
3	1908	28.1	26.65
3	1914	28.2	26.65
3	1920	28.3	26.65
3	1926	28.4	26.65
3	1947	28.5	26.65
3	1953	28.6	26.65
3	1959	28.7	26.65
3	1980	28.8	26.65
3	1986	28.9	26.65
3	1992	29	26.65
3	1998	29.1	26.65
3	2004	29.2	26.65
3	2010	29.3	26.65
3	2016	29.4	26.65
3	2037	29.5	26.65
3	2043	29.6	26.65
3	2049	29.7	26.65
3	2070	29.8	26.65
3	2076	29.9	26.65
3	2082	30	26.65
3	2088	30.1	26.65
3	2123	30.2	26.65
3	2129	30.3	26.65
3	2135	30.4	26.65
3	2156	30.5	26.65
3	2162	30.6	26.65
3	2168	30.7	26.65
3	2189	30.8	26.65
3	2195	30.9	26.65
3	2201	31	26.65
3	2207	31.1	26.65
3	2213	31.2	26.65
3	2219	31.3	26.65
3	2225	31.4	26.65
3	2246	31.5	26.65
3	2252	31.6	26.65
3	2258	31.7	26.65
3	2279	31.8	26.65
3	2285	31.9	26.65
3	2291	32	26.65
3	2297	32.1	26.65
3	2303	32.2	26.65
3	2309	32.3	26.65
3	2315	32.4	26.65
3	2336	32.5	26.65
3	2342	32.6	26.65
3	2348	32.7	26.65
3	2369	32.8	26.65
3	2375	32.9	26.65
3	2381	33	26.65
3	2387	33.1	26.65
3	2393	33.2	26.65
3	2399	33.3	26.65
3	2405	33.4	26.65
3	2426	33.5	26.65
3	2432	33.6	26.65
3	2438	33.7	26.65
3	2459	33.8	26.65
3	2465	33.9	26.65
3	2471	34	26.65
3	2477	34.1	26.65
3	2483	34.2	26.65
3	2489	34.3	26.65
3	2495	34.4	26.65
3	2516	34.5	26.65
3	2522	34.6	26.65
3	2528	34.7	26.65
3	2549	34.8	26.65
3	2555	34.9	26.65
3	2561	35	26.65
3	2567	35.1	26.65
3	2602	35.2	26.65
3	2608	35.3	26.65
3	2614	35.4	26.65
3	2635	35.5	26.65
3	2641	35.6	26.65
3	2647	35.7	26.65
3	2668	35.8	26.65
3	2674	35.9	26.65
3	2680	36	26.65
3	2686	36.1	26.65
3	2692	36.2	26.65
3	2698	36.3	26.65
3	2704	36.4	26.65
3	2725	36.5	26.65
3	2731	36.6	26.65
3	2737	36.7	26.65
3	2758	36.8	26.65
3	2764	36.9	26.65
3	2770	37	26.65
3	2776	37.1	26.65
3	2782	37.2	26.65
3	2788	37.3	26.65
3	2794	37.4	26.65
3	2815	37.5	26.65
3	2821	37.6	26.65
3	2827	37.7	26.65
3	2848	37.8	26.65
3	2854	37.9	26.65
3	2860	38	26.65
3	2866	38.1	26.65
3	2872	38.2	26.65
3	2878	38.3	26.65
3	2884	38.4	26.65
3	2905	38.5	26.65
3	2911	38.6	26.65
3	2917	38.7	26.65
3	2938	38.8	26.65
3	2944	38.9	26.65
3	2950	39	26.65
3	2956	39.1	26.65
3	2962	39.2	26.65
3	2968	39.3	26.65
3	2974	39.4	26.65
3	2995	39.5	26.65
3	3001	39.6	26.65
3	3007	39.7	26.65
3	3028	39.8	26.65
3	3034	39.9	26.65
4	207	10.2	0.0091107330754166
4	213	10.3	0.016690552483413
4	219	10.4	0.023255696094237
4	240	10.5	0.029029304150805
4	246	10.6	0.03537871557619
4	252	10.7	0.042762303344666
4	273	10.8	0.050407511679964
4	279	10.9	0.059893628218432
4	285	11	0.067035087566372
4	291	11.1	0.071515541510806
4	297	11.2	0.071584885480419
4	303	11.3	0.075711053096106
4	309	11.4	0.080661153356789
4	330	11.5	0.079291173534917
4	336	11.6	0.084772198652189
4	342	11.7	0.085557897575313
4	363	11.8	0.090279639508776
4	369	11.9	0.085922312193984
4	375	12	0.093902896530688
4	381	12.1	0.090851587764681
4	387	12.2	0.093747467164411
4	393	12.3	0.091733805876919
4	399	12.4	0.0939266436696
4	420	12.5	0.093743450664677
4	426	12.6	0.092933960890858
4	432	12.7	0.09420366402226
4	453	12.8	0.096143065598788
4	459	12.9	0.094763831292274
4	465	13	0.10317521719587
4	471	13.1	0.10607121085491
4	477	13.2	0.11327622568677
4	483	13.3	0.11222245301795
4	489	13.4	0.11897419766732
4	510	13.5	0.12694592506834
4	516	13.6	0.1320838100065
4	522	13.7	0.13983868704969
4	543	13.8	0.14650386626692
4	549	13.9	0.15070653159613
4	555	14	0.14716755452542
4	561	14.1	0.15041830468201
4	567	14.2	0.15122235275432
4	573	14.3	0.14768712408118
4	579	14.4	0.15619791880808
4	600	14.5	0.15165078277909
4	606	14.6	0.15185368229611
4	612	14.7	0.15929003850417
4	633	14.8	0.16391775595117
4	639	14.9	0.16265746386814
4	645	15	0.16354000386758
4	651	15.1	0.16866429545427
4	686	15.2	0.17808791407127
4	692	15.3	0.17857380327396
4	698	15.4	0.17418956423504
4	719	15.5	0.17439770945091
4	725	15.6	0.17487182629504
4	731	15.7	0.16994233281095
4	752	15.8	0.17121457782783
4	758	15.9	0.17499904900765
4	764	16	0.1778785864308
4	770	16.1	0.17852593484078
4	776	16.2	0.18345582057815
4	782	16.3	0.18333453574427
4	788	16.4	0.18857650957279
4	809	16.5	0.18690132734691
4	815	16.6	0.18265776157588
4	821	16.7	0.18271985855512
4	842	16.8	0.19251628392701
4	848	16.9	0.19317359252809
4	854	17	0.19306869806232
4	860	17.1	0.18848952307808
4	866	17.2	0.18531662104977
4	872	17.3	0.18767225547321
4	878	17.4	0.1968365350794
4	899	17.5	0.20006914687086
4	905	17.6	0.20976933178585
4	911	17.7	0.21314366796379
4	932	17.8	0.20844986700662
4	938	17.9	0.21305819997191
4	944	18	0.21584479692834
4	950	18.1	0.21551487913448
4	956	18.2	0.21230774073721
4	962	18.3	0.20853420864418
4	968	18.4	0.21528187664668
4	989	18.5	0.21680404366203
4	995	18.6	0.21382750520226
4	1001	18.7	0.21619297078787
4	1022	18.8	0.21244212643918
4	1028	18.9	0.20862476225919
4	1034	19	0.21737807495961
4	1040	19.1	0.22321229649917
4	1046	19.2	0.23307194597297
4	1052	19.3	0.2304368147857
4	1058	19.4	0.23072920270706
4	1079	19.5	0.22810841087461
4	1085	19.6	0.23413745840988
4	1091	19.7	0.23817014713515
4	1112	19.8	0.23987782487273
4	1118	19.9	0.24740371796395
4	1124	20	0.25185659652785
4	1130	20.1	0.25965997007885
4	1165	20.2	0.26111569401319
4	1171	20.3	0.26055963480123
4	1177	20.4	0.26623248831462
4	1198	20.5	0.26973316735681
4	1204	20.6	0.26839156698528
4	1210	20.7	0.27245009281183
4	1231	20.8	0.26900951697235
4	1237	20.9	0.26942570076999
4	1243	21	0.2660523843076
4	1249	21.1	0.26585155071434
4	1255	21.2	0.26911358473566
4	1261	21.3	0.26443502087704
4	1267	21.4	0.27269199222768
4	1288	21.5	0.27118663668842
4	1294	21.6	0.27500933456094
4	1300	21.7	0.274877748403
4	1321	21.8	0.28113080427725
4	1327	21.9	0.28643252929532
4	1333	22	0.28195128601603
4	1339	22.1	0.28312430976517
4	1345	22.2	0.28322928355285
4	1351	22.3	0.2852311897776
4	1357	22.4	0.29177319443062
4	1378	22.5	0.2958501550483
4	1384	22.6	0.29656802663323
4	1390	22.7	0.29944501380994
4	1411	22.8	0.30239303098386
4	1417	22.9	0.30165191298094
4	1423	23	0.30733204792346
4	1429	23.1	0.31158011453319
4	1435	23.2	0.31034256699238
4	1441	23.3	0.30716578412544
4	1447	23.4	0.31562283372599
4	1468	23.5	0.32423722542682
4	1474	23.6	0.32892652546032
4	1480	23.7	0.33064928163401
4	1501	23.8	0.3401449052277
4	1507	23.9	0.33561047873785
4	1513	24	0.34079552008165
4	1519	24.1	0.34747657984122
4	1525	24.2	0.35535762129793
4	1531	24.3	0.36389872239879
4	1537	24.4	0.35913808886753
4	1558	24.5	0.36523297493904
4	1564	24.6	0.36717763717961
4	1570	24.7	0.37045874457433
4	1591	24.8	0.37896520830202
4	1597	24.9	0.38368053339398
4	1603	25	0.38664179581892
4	1609	25.1	0.38402469387138
4	1644	25.2	0.38045497770747
4	1650	25.3	0.38989158694027
4	1656	25.4	0.39226685518608
4	1677	25.5	0.39976414241688
4	1683	25.6	0.39807837714417
4	1689	25.7	0.39510437775147
4	1710	25.8	0.3989334268854
4	1716	25.9	0.40683383813803
4	1722	26	0.41633550234232
4	1728	26.1	0.41159687799145
4	1734	26.2	0.41599751670006
4	1740	26.3	0.419696386185
4	1746	26.4	0.42893756449315
4	1767	26.5	0.43345512299775
4	1773	26.6	0.44320570345595
4	1779	26.7	0.44974456833186
4	1800	26.8	0.44827089286269
4	1806	26.9	0.44410904005146
4	1812	27	0.4428590513356
4	1818	27.1	0.4477679940951
4	1824	27.2	0.45042475996399
4	1830	27.3	0.45533998321718
4	1836	27.4	0.46264762919722
4	1857	27.5	0.47008283030567
4	1863	27.6	0.47313106566295
4	1869	27.7	0.47001247123209
4	1890	27.8	0.46585067496728
4	1896	27.9	0.46672688195342
4	1902	28	0.46777705076127
4	1908	28.1	0.46602238704078
4	1914	28.2	0.46852199263381
4	1920	28.3	0.47776644175266
4	1926	28.4	0.47727997058862
4	1947	28.5	0.47239402465382
4	1953	28.6	0.47838508664374
4	1959	28.7	0.4781987273714
4	1980	28.8	0.47523450573417
4	1986	28.9	0.47397184203006
4	1992	29	0.46950449554459
4	1998	29.1	0.47119085900345
4	2004	29.2	0.4780050014737
4	2010	29.3	0.48466835312172
4	2016	29.4	0.49138711260375
4	2037	29.5	0.49284350962587
4	2043	29.6	0.4960618740539
4	2049	29.7	0.49150832378049
4	2070	29.8	0.49130015336768
4	2076	29.9	0.50002071986184
4	2082	30	0.50917444484285
4	2088	30.1	0.51185687925294
4	2123	30.2	0.50864181087329
4	2129	30.3	0.50399574501882
4	2135	30.4	0.5047308762311
4	2156	30.5	0.50659339457727
4	2162	30.6	0.50377419083123
4	2168	30.7	0.50261667269608
4	2189	30.8	0.50543772779964
4	2195	30.9	0.5052815041549
4	2201	31	0.50617582824058
4	2207	31.1	0.50545537424832
4	2213	31.2	0.50841291643539
4	2219	31.3	0.51157269708439
4	2225	31.4	0.50797642575204
4	2246	31.5	0.51591811943892
4	2252	31.6	0.52247982959356
4	2258	31.7	0.5192560485329
4	2279	31.8	0.51568967387406
4	2285	31.9	0.51600290487846
4	2291	32	0.52113266028906
4	2297	32.1	0.52333699240558
4	2303	32.2	0.53333616215014
4	2309	32.3	0.53865825884253
4	2315	32.4	0.54227648578211
4	2336	32.5	0.53899642081791
4	2342	32.6	0.53879822899447
4	2348	32.7	0.54195628240914
4	2369	32.8	0.54470515314582
4	2375	32.9	0.54287406182475
4	2381	33	0.54943243438936
4	2387	33.1	0.54622797032212
4	2393	33.2	0.55152258436055
4	2399	33.3	0.54716082152072
4	2405	33.4	0.55008454788336
4	2426	33.5	0.54941079055983
4	2432	33.6	0.55710537600773
4	2438	33.7	0.55614874329976
4	2459	33.8	0.55645477677439
4	2465	33.9	0.56323156572622
4	2471	34	0.57043469244707
4	2477	34.1	0.56832098847231
4	2483	34.2	0.56711479640891
4	2489	34.3	0.5669920862324
4	2495	34.4	0.57283867994998
4	2516	34.5	0.58021504686656
4	2522	34.6	0.57964793294062
4	2528	34.7	0.58270067999349
4	2549	34.8	0.58009425196307
4	2555	34.9	0.58702126553957
4	2561	35	0.59454688246804
4	2567	35.1	0.60267438655463
4	2602	35.2	0.60184317664336
4	2608	35.3	0.61138638215698
4	2614	35.4	0.61018146859225
4	2635	35.5	0.61879252621298
4	2641	35.6	0.6255307687968
4	2647	35.7	0.62429195254668
4	2668	35.8	0.62331654617074
4	2674	35.9	0.63263232663017
4	2680	36	0.63949497121013
4	2686	36.1	0.64519124552817
4	2692	36.2	0.64503229592787
4	2698	36.3	0.65408672153926
4	2704	36.4	0.65575198298064
4	2725	36.5	0.66561338192876
4	2731	36.6	0.66311781050847
4	2737	36.7	0.65835286900028
4	2758	36.8	0.65780044721998
4	2764	36.9	0.66507597913593
4	2770	37	0.66739007715345
4	2776	37.1	0.66868337019439
4	2782	37.2	0.66687023789365
4	2788	37.3	0.66777310596057
4	2794	37.4	0.67449706323887
4	2815	37.5	0.67766953098098
4	2821	37.6	0.67448648489755
4	2827	37.7	0.67710246129986
4	2848	37.8	0.67636904401332
4	2854	37.9	0.6790766506372
4	2860	38	0.67844842840428
4	2866	38.1	0.68097632497758
4	2872	38.2	0.67830807381053
4	2878	38.3	0.68539294051798
4	2884	38.4	0.68379305029497
4	2905	38.5	0.67917917027464
4	2911	38.6	0.67624452356458
4	2917	38.7	0.67453812382742
4	2938	38.8	0.6697626396208
4	2944	38.9	0.66845909555186
4	2950	39	0.67839837396843
4	2956	39.1	0.68435618242342
4	2962	39.2	0.68819880030094
4	2968	39.3	0.69177544289711
4	2974	39.4	0.69730781557015
4	2995	39.5	0.70129083044803
4	3001	39.6	0.70948097550054
4	3007	39.7	0.70477048039762
4	3028	39.8	0.70867867308529
4	3034	39.9	0.71014051173674
5	207	10.2	0.0094511864976957
5	213	10.3	0.018060058325773
5	219	10.4	0.026368700792828
5	240	10.5	0.0343870314683
5	246	10.6	0.042506553588625
5	252	10.7	0.049115186191958
5	273	10.8	0.056528381252656
5	279	10.9	0.060595559827488
5	285	11	0.063792528596133
5	291	11.1	0.070963016653435
5	297	11.2	0.074552971946793
5	303	11.3	0.080081008200484
5	309	11.4	0.084964005499895
5	330	11.5	0.086174169123045
5	336	11.6	0.095490985730615
5	342	11.7	0.10461969276094
5	363	11.8	0.11441750876973
5	369	11.9	0.11609131034133
5	375	12	0.11830974277244
5	381	12.1	0.11960962131987
5	387	12.2	0.11982343789092
5	393	12.3	0.12183185225255
5	399	12.4	0.12721705862456
5	420	12.5	0.12941176686804
5	426	12.6	0.13822902263044
5	432	12.7	0.14182981246053
5	453	12.8	0.15039627960552
5	459	12.9	0.15094959041937
5	465	13	0.15573110713758
5	471	13.1	0.1615844877264
5	477	13.2	0.16893893161225
5	483	13.3	0.1711965947472
5	489	13.4	0.17663509138762
5	510	13.5	0.18095075190435
5	516	13.6	0.19076285392414
5	522	13.7	0.19458649891564
5	543	13.8	0.19846554169101
5	549	13.9	0.20229620170449
5	555	14	0.20285872095167
5	561	14.1	0.2060405179732
5	567	14.2	0.2124454389526
5	573	14.3	0.21807511942596
5	579	14.4	0.22109880747176
5	600	14.5	0.23049655280677
5	606	14.6	0.23382888569399
5	612	14.7	0.23712250695699
5	633	14.8	0.24501868134034
5	639	14.9	0.25372941835686
5	645	15	0.2605751348603
5	651	15.1	0.2669380271262
5	686	15.2	0.27123605936668
5	692	15.3	0.27685004423275
5	698	15.4	0.27696630591429
5	719	15.5	0.28594585784613
5	725	15.6	0.29385709026032
5	731	15.7	0.30224399514864
5	752	15.8	0.30571291192803
5	758	15.9	0.31317999591487
5	764	16	0.31851688818675
5	770	16.1	0.32607263230621
5	776	16.2	0.33448293644139
5	782	16.3	0.34337918504975
5	788	16.4	0.34681588912983
5	809	16.5	0.35543405963476
5	815	16.6	0.36346823606775
5	821	16.7	0.3697809844105
5	842	16.8	0.37157105210139
5	848	16.9	0.38060003938987
5	854	17	0.38222059032316
5	860	17.1	0.39125960631198
5	866	17.2	0.39149501165976
5	872	17.3	0.39680849967659
5	878	17.4	0.39704088876857
5	899	17.5	0.40099243358844
5	905	17.6	0.40359979777499
5	911	17.7	0.41320791988536
5	932	17.8	0.42037985029067
5	938	17.9	0.42917788464478
5	944	18	0.43621648265184
5	950	18.1	0.44502920550895
5	956	18.2	0.45184937377595
5	962	18.3	0.45770674389224
5	968	18.4	0.46706526888204
5	989	18.5	0.47014054768854
5	995	18.6	0.47447453320394
5	1001	18.7	0.48182063829289
5	1022	18.8	0.48658815776366
5	1028	18.9	0.49564875270375
5	1034	19	0.49988928775205
5	1040	19.1	0.5005963257737
5	1046	19.2	0.50741063622427
5	1052	19.3	0.51073653246178
5	1058	19.4	0.51941855384172
5	1079	19.5	0.52225528186322
5	1085	19.6	0.52936122095347
5	1091	19.7	0.5375293073188
5	1112	19.8	0.54166417798861
5	1118	19.9	0.55146310248314
5	1124	20	0.5531737021999
5	1130	20.1	0.56312674737903
5	1165	20.2	0.56634858198599
5	1171	20.3	0.57364850229952
5	1177	20.4	0.57629656209513
5	1198	20.5	0.57667467664597
5	1204	20.6	0.58418714524847
5	1210	20.7	0.58842557188957
5	1231	20.8	0.59250515262498
5	1237	20.9	0.59678263361002
5	1243	21	0.60455181730348
5	1249	21.1	0.60502432721104
5	1255	21.2	0.61055307342573
5	1261	21.3	0.61208898676462
5	1267	21.4	0.61509419398983
5	1288	21.5	0.62211982447323
5	1294	21.6	0.62398184627662
5	1300	21.7	0.63001678888821
5	1321	21.8	0.63120575687983
5	1327	21.9	0.63539302812093
5	1333	22	0.63657567452542
5	1339	22.1	0.63965035861027
5	1345	22.2	0.64239781579603
5	1351	22.3	0.64738457196527
5	1357	22.4	0.64782373556769
5	1378	22.5	0.65138383360249
5	1384	22.6	0.65714528316301
5	1390	22.7	0.66108135099425
5	1411	22.8	0.67088941898798
5	1417	22.9	0.67787367082569
5	1423	23	0.68127193544195
5	1429	23.1	0.68837115934254
5	1435	23.2	0.69219100507344
5	1441	23.3	0.69790331808752
5	1447	23.4	0.70654857740174
5	1468	23.5	0.71356575412345
5	1474	23.6	0.71786610500789
5	1480	23.7	0.72195737737832
5	1501	23.8	0.72621412482015
5	1507	23.9	0.72968211666583
5	1513	24	0.73316108392221
5	1519	24.1	0.73884689957737
5	1525	24.2	0.73988143359446
5	1531	24.3	0.74620581487794
5	1537	24.4	0.75184716568463
5	1558	24.5	0.75292793210265
5	1564	24.6	0.75486599218468
5	1570	24.7	0.7578271063291
5	1591	24.8	0.7668248374634
5	1597	24.9	0.76763001133357
5	1603	25	0.77048759834976
5	1609	25.1	0.77049912832114
5	1644	25.2	0.77900464527444
5	1650	25.3	0.78032338466863
5	1656	25.4	0.78869845535508
5	1677	25.5	0.79254285968044
5	1683	25.6	0.80130465985644
5	1689	25.7	0.80282457758342
5	1710	25.8	0.80475138798025
5	1716	25.9	0.80906038053702
5	1722	26	0.81498854756025
5	1728	26.1	0.82429687765795
5	1734	26.2	0.82732258993336
5	1740	26.3	0.83278716313089
5	1746	26.4	0.83556660707942
5	1767	26.5	0.83690278381943
5	1773	26.6	0.83714756869846
5	1779	26.7	0.83858953526844
5	1800	26.8	0.84847239445332
5	1806	26.9	0.85487261386258
5	1812	27	0.85757270824532
5	1818	27.1	0.86585641147005
5	1824	27.2	0.87064604543983
5	1830	27.3	0.88010266557937
5	1836	27.4	0.88810270032515
5	1857	27.5	0.89791748238397
5	1863	27.6	0.89998050535931
5	1869	27.7	0.90774125853223
5	1890	27.8	0.91428774174671
5	1896	27.9	0.91500692882012
5	1902	28	0.91796278482671
5	1908	28.1	0.92764439558745
5	1914	28.2	0.93599745402248
5	1920	28.3	0.93978266995535
5	1926	28.4	0.94401038410277
5	1947	28.5	0.95163145595365
5	1953	28.6	0.95228931593611
5	1959	28.7	0.95614965641075
5	1980	28.8	0.96079332843791
5	1986	28.9	0.96489422866046
5	1992	29	0.96759300839757
5	1998	29.1	0.97447355844216
5	2004	29.2	0.9804913477683
5	2010	29.3	0.9883929102276
5	2016	29.4	0.99653098017345
5	2037	29.5	0.99708725628811
5	2043	29.6	0.99969174832241
5	2049	29.7	1.0047871603039
5	2070	29.8	1.012513014012
5	2076	29.9	1.0199694491843
5	2082	30	1.0293891575597
5	2088	30.1	1.0350449912706
5	2123	30.2	1.0419270325023
5	2129	30.3	1.044963597645
5	2135	30.4	1.024963597645
5	2156	30.5	1.004963597645
5	2162	30.6	0.98496359764501
5	2168	30.7	0.96496359764501
5	2189	30.8	0.94496359764501
5	2195	30.9	0.92496359764501
5	2201	31	0.90496359764501
5	2207	31.1	0.88496359764501
5	2213	31.2	0.86496359764501
5	2219	31.3	0.84496359764501
5	2225	31.4	0.82496359764501
5	2246	31.5	0.80496359764501
5	2252	31.6	0.78496359764501
5	2258	31.7	0.76496359764501
5	2279	31.8	0.74496359764501
5	2285	31.9	0.72496359764501
5	2291	32	0.70496359764501
5	2297	32.1	0.68496359764501
5	2303	32.2	0.66496359764501
5	2309	32.3	0.64496359764501
5	2315	32.4	0.62496359764501
5	2336	32.5	0.60496359764501
5	2342	32.6	0.58496359764501
5	2348	32.7	0.56496359764501
5	2369	32.8	0.54496359764501
5	2375	32.9	0.52496359764501
5	2381	33	0.50496359764501
5	2387	33.1	0.4926914419746
5	2393	33.2	0.4974605835462
5	2399	33.3	0.49786688025109
5	2405	33.4	0.49481799288653
5	2426	33.5	0.49974337286549
5	2432	33.6	0.4979252992128
5	2438	33.7	0.49575314534828
5	2459	33.8	0.49625830021454
5	2465	33.9	0.49536424577236
5	2471	34	0.49722371291602
5	2477	34.1	0.49413215654669
5	2483	34.2	0.49136144398712
5	2489	34.3	0.49882468142547
5	2495	34.4	0.49482620888855
5	2516	34.5	0.49867931890301
5	2522	34.6	0.49283140320098
5	2528	34.7	0.4960394029622
5	2549	34.8	0.49434578692308
5	2555	34.9	0.49816720160423
5	2561	35	0.49855152237462
5	2567	35.1	0.49511943715392
5	2602	35.2	0.49644387264969
5	2608	35.3	0.49059568048455
5	2614	35.4	0.49234674747568
5	2635	35.5	0.49251336375484
5	2641	35.6	0.49096280260477
5	2647	35.7	0.49916577565251
5	2668	35.8	0.49447807528544
5	2674	35.9	0.49415523927659
5	2680	36	0.49038063616492
5	2686	36.1	0.49707852469292
5	2692	36.2	0.49759171222802
5	2698	36.3	0.4989970605541
5	2704	36.4	0.49983570368728
5	2725	36.5	0.4907047068188
5	2731	36.6	0.49330083457753
5	2737	36.7	0.49214847089723
5	2758	36.8	0.49718269895762
5	2764	36.9	0.49413589830045
5	2770	37	0.49936044734204
5	2776	37.1	0.49514372406527
5	2782	37.2	0.49022504864726
5	2788	37.3	0.49123494757572
5	2794	37.4	0.4966184104397
5	2815	37.5	0.49038429842331
5	2821	37.6	0.49768298374489
5	2827	37.7	0.49050681178225
5	2848	37.8	0.49058622295037
5	2854	37.9	0.49200797415338
5	2860	38	0.49369552064454
5	2866	38.1	0.49125712030102
5	2872	38.2	0.49706979715964
5	2878	38.3	0.49151056445902
5	2884	38.4	0.49382123308023
5	2905	38.5	0.49986763143213
5	2911	38.6	0.4965276648826
5	2917	38.7	0.49851859139977
5	2938	38.8	0.49018170613097
5	2944	38.9	0.49521629693452
5	2950	39	0.49502608632436
5	2956	39.1	0.49360527483514
5	2962	39.2	0.49631415396929
5	2968	39.3	0.49863099725917
5	2974	39.4	0.49177882265067
5	2995	39.5	0.49810152086196
5	3001	39.6	0.49488681017654
5	3007	39.7	0.49775682976004
5	3028	39.8	0.49902155513875
5	3034	39.9	0.49137808485888
6	213	10.3	0.075798194079965
6	219	10.4	0.065651436108239
6	240	10.5	0.057736080565677
6	246	10.6	0.063494114253855
6	252	10.7	0.073835877684762
6	273	10.8	0.076452083352972
6	279	10.9	0.094861165384682
6	285	11	0.071414593479397
6	291	11.1	0.044804539444342
6	297	11.2	0.00069343969612862
6	303	11.3	0.041261676156877
6	309	11.4	0.049501002606831
6	330	11.5	-0.013699798218727
6	336	11.6	0.054810251172721
6	342	11.7	0.0078569892312426
6	363	11.8	0.047217419334631
6	369	11.9	-0.043573273147922
6	375	12	0.079805843367043
6	381	12.1	-0.030513087660074
6	387	12.2	0.028958793997299
6	393	12.3	-0.020136612874921
6	399	12.4	0.021928377926815
6	420	12.5	-0.0018319300492294
6	426	12.6	-0.0080948977381923
6	432	12.7	0.012697031314019
6	453	12.8	0.019394015765283
6	459	12.9	-0.013792343065143
6	465	13	0.084113859036006
6	471	13.1	0.028959936590399
6	477	13.2	0.072050148318522
6	483	13.3	-0.010537726688199
6	489	13.4	0.06751744649373
6	510	13.5	0.079717274010181
6	516	13.6	0.051378849381581
6	522	13.7	0.077548770431895
6	543	13.8	0.066651792172343
6	549	13.9	0.042026653292123
6	555	14	-0.035389770707115
6	561	14.1	0.032507501565851
6	567	14.2	0.0080404807231391
6	573	14.3	-0.035352286731359
6	579	14.4	0.085107947268989
6	600	14.5	-0.045471360289957
6	606	14.6	0.0020289951702582
6	612	14.7	0.074363562080544
6	633	14.8	0.046277174470015
6	639	14.9	-0.01260292083025
6	645	15	0.0088253999943846
6	651	15.1	0.051242915866897
6	686	15.2	0.094236186170019
6	692	15.3	0.004858892026823
6	698	15.4	-0.043842390389182
6	719	15.5	0.0020814521587453
6	725	15.6	0.004741168441251
6	731	15.7	-0.049294934840873
6	752	15.8	0.012722450168803
6	758	15.9	0.037844711798243
6	764	16	0.028795374231413
6	770	16.1	0.0064734840998426
6	776	16.2	0.049298857373651
6	782	16.3	-0.0012128483387641
6	788	16.4	0.052419738285244
6	809	16.5	-0.016751822258811
6	815	16.6	-0.042435657710302
6	821	16.7	0.00062096979236231
6	842	16.8	0.097964253718965
6	848	16.9	0.006573086010758
6	854	17	-0.0010489446576684
6	860	17.1	-0.045791749842465
6	866	17.2	-0.031729020283092
6	872	17.3	0.023556344234385
6	878	17.4	0.091642796061933
6	899	17.5	0.032326117914636
6	905	17.6	0.09700184914982
6	911	17.7	0.033743361779489
6	932	17.8	-0.04693800957175
6	938	17.9	0.046083329652902
6	944	18	0.0278659695643
6	950	18.1	-0.0032991779386066
6	956	18.2	-0.032071383972652
6	962	18.3	-0.037735320930369
6	968	18.4	0.067476680024993
6	989	18.5	0.015221670153551
6	995	18.6	-0.029765384597704
6	1001	18.7	0.02365465585608
6	1022	18.8	-0.037508443486877
6	1028	18.9	-0.038173641799949
6	1034	19	0.087533127004281
6	1040	19.1	0.058342215395533
6	1046	19.2	0.098596494738013
6	1052	19.3	-0.026351311872713
6	1058	19.4	0.0029238792136313
6	1079	19.5	-0.026207918324508
6	1085	19.6	0.060290475352667
6	1091	19.7	0.040326887252741
6	1112	19.8	0.017076777375769
6	1118	19.9	0.075258930912241
6	1124	20	0.044528785638977
6	1130	20.1	0.078033735509962
6	1165	20.2	0.014557239343412
6	1171	20.3	-0.0055605921195817
6	1177	20.4	0.05672853513388
6	1198	20.5	0.035006790421903
6	1204	20.6	-0.013416003715247
6	1210	20.7	0.040585258265491
6	1231	20.8	-0.03440575839486
6	1237	20.9	0.0041618379764258
6	1243	21	-0.033733164623845
6	1249	21.1	-0.0020083359326234
6	1255	21.2	0.03262034021318
6	1261	21.3	-0.046785638586152
6	1267	21.4	0.082569713506382
6	1288	21.5	-0.01505355539266
6	1294	21.6	0.038226978725288
6	1300	21.7	-0.0013158615794961
6	1321	21.8	0.062530558742583
6	1327	21.9	0.05301725018071
6	1333	22	-0.044812432792969
6	1339	22.1	0.011730237491429
6	1345	22.2	0.0010497378767471
6	1351	22.3	0.020019062247593
6	1357	22.4	0.065420046530199
6	1378	22.5	0.040769606176764
6	1384	22.6	0.0071787158492953
6	1390	22.7	0.028769871767145
6	1411	22.8	0.029480171739124
6	1417	22.9	-0.0074111800291576
6	1423	23	0.056801349425223
6	1429	23.1	0.042480666097254
6	1435	23.2	-0.012375475408044
6	1441	23.3	-0.031767828669399
6	1447	23.4	0.084570496005472
6	1468	23.5	0.086143917008303
6	1474	23.6	0.046893000334967
6	1480	23.7	0.017227561736945
6	1501	23.8	0.094956235936843
6	1507	23.9	-0.045344264898449
6	1513	24	0.051850413437933
6	1519	24.1	0.066810597595759
6	1525	24.2	0.078810414567124
6	1531	24.3	0.085411011008546
6	1537	24.4	-0.047606335312594
6	1558	24.5	0.060948860715144
6	1564	24.6	0.019446622405667
6	1570	24.7	0.032811073947232
6	1591	24.8	0.08506463727681
6	1597	24.9	0.047153250919655
6	1603	25	0.029612624249421
6	1609	25.1	-0.026171019475441
6	1644	25.2	-0.035697161639109
6	1650	25.3	0.094366092327982
6	1656	25.4	0.023752682458144
6	1677	25.5	0.07497287230799
6	1683	25.6	-0.016857652727049
6	1689	25.7	-0.029739993927069
6	1710	25.8	0.038290491339285
6	1716	25.9	0.079004112526309
6	1722	26	0.095016642042902
6	1728	26.1	-0.047386243508663
6	1734	26.2	0.04400638708612
6	1740	26.3	0.036988694849424
6	1746	26.4	0.09241178308148
6	1767	26.5	0.045175585045945
6	1773	26.6	0.097505804582033
6	1779	26.7	0.065388648759108
6	1800	26.8	-0.014736754691694
6	1806	26.9	-0.041618528112303
6	1812	27	-0.012499887158628
6	1818	27.1	0.049089427595027
6	1824	27.2	0.026567658688873
6	1830	27.3	0.049152232531924
6	1836	27.4	0.073076459800359
6	1857	27.5	0.074352011084557
6	1863	27.6	0.030482353572734
6	1869	27.7	-0.031185944308527
6	1890	27.8	-0.041617962648161
6	1896	27.9	0.0087620698614049
6	1902	28	0.010501688078511
6	1908	28.1	-0.017546637204942
6	1914	28.2	0.024996055930387
6	1920	28.3	0.092444491188508
6	1926	28.4	-0.0048647116404027
6	1947	28.5	-0.048859459348023
6	1953	28.6	0.059910619899165
6	1959	28.7	-0.0018635927233845
6	1980	28.8	-0.029642216372304
6	1986	28.9	-0.012626637041103
6	1992	29	-0.044673464854714
6	1998	29.1	0.016863634588662
6	2004	29.2	0.06814142470248
6	2010	29.3	0.066633516480215
6	2016	29.4	0.06718759482028
6	2037	29.5	0.014563970221206
6	2043	29.6	0.032183644280304
6	2049	29.7	-0.045535502734128
6	2070	29.8	-0.0020817041280685
6	2076	29.9	0.087205664941575
6	2082	30	0.091537249810062
6	2088	30.1	0.026824344100896
6	2123	30.2	-0.032150683796499
6	2129	30.3	-0.046460658544675
6	2135	30.4	0.0073513121227731
6	2156	30.5	0.0186251834617
6	2162	30.6	-0.028192037460394
6	2168	30.7	-0.011575181351509
6	2189	30.8	0.02821055103559
6	2195	30.9	-0.0015622364473533
6	2201	31	0.0089432408567514
6	2207	31.1	-0.0072045399225318
6	2213	31.2	0.029575421870687
6	2219	31.3	0.031597806490027
6	2225	31.4	-0.035962713323533
6	2246	31.5	0.079416936868801
6	2252	31.6	0.065617101546377
6	2258	31.7	-0.032237810606602
6	2279	31.8	-0.035663746588398
6	2285	31.9	0.0031323100440206
6	2291	32	0.051297554105986
6	2297	32.1	0.022043321165256
6	2303	32.2	0.099991697445512
6	2309	32.3	0.053220966923982
6	2315	32.4	0.036182269395795
6	2336	32.5	-0.032800649642013
6	2342	32.6	-0.0019819182343783
6	2348	32.7	0.031580534146634
6	2369	32.8	0.027488707366865
6	2375	32.9	-0.018310913210735
6	2381	33	0.065583725646138
6	2387	33.1	-0.032044640672393
6	2393	33.2	0.052946140384301
6	2399	33.3	-0.043617628398351
6	2405	33.4	0.029237263626419
6	2426	33.5	-0.0067375732352959
6	2432	33.6	0.076945854478981
6	2438	33.7	-0.0095663270796653
6	2459	33.8	0.0030603347462599
6	2465	33.9	0.067767889518291
6	2471	34	0.072031267208513
6	2477	34.1	-0.021137039747555
6	2483	34.2	-0.012061920634006
6	2489	34.3	-0.0012271017651078
6	2495	34.4	0.058465937175788
6	2516	34.5	0.073763669165783
6	2522	34.6	-0.0056711392593567
6	2528	34.7	0.030527470528614
6	2549	34.8	-0.026064280304127
6	2555	34.9	0.069270135764964
6	2561	35	0.075256169284694
6	2567	35.1	0.081275040865876
6	2602	35.2	-0.0083120991126628
6	2608	35.3	0.095432055136189
6	2614	35.4	-0.012049135647249
6	2635	35.5	0.086110576207284
6	2641	35.6	0.067382425838151
6	2647	35.7	-0.012388162501157
6	2668	35.8	-0.0097540637594651
6	2674	35.9	0.093157804594375
6	2680	36	0.0686264457996
6	2686	36.1	0.056962743180339
6	2692	36.2	-0.0015894960029983
6	2698	36.3	0.090544256113936
6	2704	36.4	0.01665261441376
6	2725	36.5	0.098613989481237
6	2731	36.6	-0.024955714202951
6	2737	36.7	-0.047649415081833
6	2758	36.8	-0.0055242178030313
6	2764	36.9	0.072755319159478
6	2770	37	0.02314098017523
6	2776	37.1	0.012932930409443
6	2782	37.2	-0.018131323007401
6	2788	37.3	0.0090286806691442
6	2794	37.4	0.067239572783001
6	2815	37.5	0.031724677421152
6	2821	37.6	-0.031830460834317
6	2827	37.7	0.026159764023033
6	2848	37.8	-0.0073341728653753
6	2854	37.9	0.027076066238806
6	2860	38	-0.0062822223291736
6	2866	38.1	0.025278965733014
6	2872	38.2	-0.026682511670515
6	2878	38.3	0.07084866707446
6	2884	38.4	-0.015998902230058
6	2905	38.5	-0.046138800203335
6	2911	38.6	-0.029346467100549
6	2917	38.7	-0.017063997371588
6	2938	38.8	-0.047754842066206
6	2944	38.9	-0.013035440689418
6	2950	39	0.099392784165684
6	2956	39.1	0.059578084549867
6	2962	39.2	0.038426178775263
6	2968	39.3	0.035766425961629
6	2974	39.4	0.055323726730421
6	2995	39.5	0.039830148778855
6	3001	39.6	0.081901450525038
6	3007	39.7	-0.047104951029178
6	3028	39.8	0.03908192687668
6	3034	39.9	0.014618386514484
7	213	10.3	1.1111100450918
7	219	10.4	1.1114898074744
7	240	10.5	1.1118043011087
7	246	10.6	1.1122480413205
7	252	10.7	1.112823792257
7	273	10.8	1.113360426183
7	279	10.9	1.1142585491018
7	285	11	1.1143875357821
7	291	11.1	1.1142221607484
7	297	11.2	1.113465251955
7	303	11.3	1.1144052168467
7	309	11.4	1.1148534092373
7	330	11.5	1.1135632604514
7	336	11.6	1.1152092460459
7	342	11.7	1.1142893776583
7	363	11.8	1.1153824857384
7	369	11.9	1.113242667092
7	375	12	1.1163360061839
7	381	12.1	1.1137146587145
7	387	12.2	1.1151767240027
7	393	12.3	1.1139801329463
7	399	12.4	1.115027475644
7	420	12.5	1.1144808728839
7	426	12.6	1.1143019063115
7	432	12.7	1.1148327237368
7	453	12.8	1.1150873922127
7	459	12.9	1.1142564951553
7	465	13	1.1170687841662
7	471	13.1	1.1158572930035
7	477	13.2	1.1174315174959
7	483	13.3	1.1151287424354
7	489	13.4	1.1176753838674
7	510	13.5	1.1185629281365
7	516	13.6	1.1180074375855
7	522	13.7	1.1193595515714
7	543	13.8	1.1194209405957
7	549	13.9	1.118796818857
7	555	14	1.1158444748101
7	561	14.1	1.1184349167215
7	567	14.2	1.1175883177593
7	573	14.3	1.1158664447523
7	579	14.4	1.1207391175497
7	600	14.5	1.1156540760082
7	606	14.6	1.1173999997184
7	612	14.7	1.1205392601215
7	633	14.8	1.1197359412048
7	639	14.9	1.117352953457
7	645	15	1.1182374105793
7	651	15.1	1.1202197357787
7	686	15.2	1.1226360232649
7	692	15.3	1.1188240349884
7	698	15.4	1.1165629030878
7	719	15.5	1.1185009186205
7	725	15.6	1.1186361232314
7	731	15.7	1.1161795431409
7	752	15.8	1.1187848177026
7	758	15.9	1.1200385412556
7	764	16	1.1198158043298
7	770	16.1	1.1188911367594
7	776	16.2	1.1210301222907
7	782	16.3	1.1187910392237
7	788	16.4	1.1214798669516
7	809	16.5	1.1182621671461
7	815	16.6	1.1169439336489
7	821	16.7	1.11884231423
7	842	16.8	1.1238328357669
7	848	16.9	1.1196253689541
7	854	17	1.1192654918916
7	860	17.1	1.1170132183417
7	866	17.2	1.1175232022426
7	872	17.3	1.1201193504397
7	878	17.4	1.123843413723
7	899	17.5	1.1212107330216
7	905	17.6	1.1250239964219
7	911	17.7	1.1220162613821
7	932	17.8	1.1176984608329
7	938	17.9	1.1226450629456
7	944	18	1.1218628305793
7	950	18.1	1.1202260061909
7	956	18.2	1.1186016397089
7	962	18.3	1.1181640735816
7	968	18.4	1.1238870074608
7	989	18.5	1.121254897301
7	995	18.6	1.1187820594472
7	1001	18.7	1.1216625492222
7	1022	18.8	1.1183287158837
7	1028	18.9	1.1181455813205
7	1034	19	1.1250729628519
7	1040	19.1	1.1239072592249
7	1046	19.2	1.1267827588197
7	1052	19.3	1.1196539750532
7	1058	19.4	1.1212940958979
7	1079	19.5	1.1195642887793
7	1085	19.6	1.1246979950609
7	1091	19.7	1.1238052991771
7	1112	19.8	1.1225601993595
7	1118	19.9	1.1264234150452
7	1124	20	1.1248538213181
7	1130	20.1	1.1274108134659
7	1165	20.2	1.1235139365227
7	1171	20.3	1.1222218542707
7	1177	20.4	1.1264846164261
7	1198	20.5	1.125289381584
7	1204	20.6	1.1220812162979
7	1210	20.7	1.12580970795
7	1231	20.8	1.1207482476309
7	1237	20.9	1.1232691372939
7	1243	21	1.1206731825985
7	1249	21.1	1.1226977400364
7	1255	21.2	1.1250994767537
7	1261	21.3	1.119776459094
7	1267	21.4	1.128582914951
7	1288	21.5	1.12210004587
7	1294	21.6	1.1258019506984
7	1300	21.7	1.1231748512565
7	1321	21.8	1.1278004057398
7	1327	21.9	1.1274794695934
7	1333	22	1.1205583841749
7	1339	22.1	1.1244604020578
7	1345	22.2	1.1237367327945
7	1351	22.3	1.1251378209808
7	1357	22.4	1.1286775971546
7	1378	22.5	1.1271810719562
7	1384	22.6	1.1248219348087
7	1390	22.7	1.1265239215892
7	1411	22.8	1.1267384124446
7	1417	22.9	1.1240154451531
7	1423	23	1.1290354864912
7	1429	23.1	1.1282233266068
7	1435	23.2	1.1240480931543
7	1441	23.3	1.1224686790995
7	1447	23.4	1.1316614135261
7	1468	23.5	1.1323757392501
7	1474	23.6	1.1295879718678
7	1480	23.7	1.1273266644998
7	1501	23.8	1.1341962557815
7	1507	23.9	1.1225258010159
7	1513	24	1.13070219595
7	1519	24.1	1.1323609893299
7	1525	24.2	1.1338960145119
7	1531	24.3	1.1350494367757
7	1537	24.4	1.1232086637169
7	1558	24.5	1.1329881280638
7	1564	24.6	1.1294380501519
7	1570	24.7	1.1308050175043
7	1591	24.8	1.1360553150185
7	1597	24.9	1.1328740867214
7	1603	25	1.1314162639626
7	1609	25.1	1.1261084564446
7	1644	25.2	1.1250851751245
7	1650	25.3	1.1376808488715
7	1656	25.4	1.1311740200291
7	1677	25.5	1.136513647333
7	1683	25.6	1.1275918576055
7	1689	25.7	1.1262336861635
7	1710	25.8	1.1329317746129
7	1716	25.9	1.1373779974967
7	1722	26	1.1396243623484
7	1728	26.1	1.1251614037195
7	1734	26.2	1.1344862485688
7	1740	26.3	1.1339942721995
7	1746	26.4	1.1402522098961
7	1767	26.5	1.135636561271
7	1773	26.6	1.1418031316104
7	1779	26.7	1.138791455371
7	1800	26.8	1.1300408492095
7	1806	26.9	1.1269774691639
7	1812	27	1.1300374433877
7	1818	27.1	1.136905963981
7	1824	27.2	1.1346209145466
7	1830	27.3	1.1373681374603
7	1836	27.4	1.1404751544424
7	1857	27.5	1.1411097283762
7	1863	27.6	1.1363093643936
7	1869	27.7	1.1291504677849
7	1890	27.8	1.1278095266356
7	1896	27.9	1.1335098647961
7	1902	28	1.1337589206673
7	1908	28.1	1.130519582244
7	1914	28.2	1.1354334014442
7	1920	28.3	1.1437017445832
7	1926	28.4	1.1324744685562
7	1947	28.5	1.1272355251994
7	1953	28.6	1.1399945538244
7	1959	28.7	1.1328636369811
7	1980	28.8	1.1295402596698
7	1986	28.9	1.1314319323562
7	1992	29	1.127603629003
7	1998	29.1	1.1346548948822
7	2004	29.2	1.1409188887572
7	2010	29.3	1.1411740514767
7	2016	29.4	1.141672118647
7	2037	29.5	1.1355156692216
7	2043	29.6	1.1377888854718
7	2049	29.7	1.1283274905482
7	2070	29.8	1.1334647937086
7	2076	29.9	1.1446412664075
7	2082	30	1.145807401191
7	2088	30.1	1.1380133485831
7	2123	30.2	1.1306079205966
7	2129	30.3	1.1286813313735
7	2135	30.4	1.1352543103597
7	2156	30.5	1.136724005757
7	2162	30.6	1.130891094369
7	2168	30.7	1.1328558490233
7	2189	30.8	1.1378305853221
7	2195	30.9	1.134196458951
7	2201	31	1.1355208739241
7	2207	31.1	1.1335174775288
7	2213	31.2	1.1381617820768
7	2219	31.3	1.1385862973694
7	2225	31.4	1.1301142528929
7	2246	31.5	1.144774981249
7	2252	31.6	1.1434799534099
7	2258	31.7	1.1310275828866
7	2279	31.8	1.1304572051119
7	2285	31.9	1.1352941958448
7	2291	32	1.1415951260378
7	2297	32.1	1.1380392139798
7	2303	32.2	1.1485944852505
7	2309	32.3	1.1429082797174
7	2315	32.4	1.1409027600973
7	2336	32.5	1.131754909442
7	2342	32.6	1.1357487231895
7	2348	32.7	1.1402834558786
7	2369	32.8	1.1399000574702
7	2375	32.9	1.1338073593113
7	2381	33	1.1452040947142
7	2387	33.1	1.1321467061173
7	2393	33.2	1.1436583861181
7	2399	33.3	1.1306584991434
7	2405	33.4	1.1404274502484
7	2426	33.5	1.1356267881295
7	2432	33.6	1.1472216710294
7	2438	33.7	1.1355623136811
7	2459	33.8	1.137269703503
7	2465	33.9	1.1463855289186
7	2471	34	1.1474373978912
7	2477	34.1	1.1345377194489
7	2483	34.2	1.1357259082517
7	2489	34.3	1.1372008593163
7	2495	34.4	1.1457225663333
7	2516	34.5	1.1483221267185
7	2522	34.6	1.1371879770503
7	2528	34.7	1.1424147570445
7	2549	34.8	1.1343579225873
7	2555	34.9	1.1481363859231
7	2561	35	1.149483496646
7	2567	35.1	1.1508979891384
7	2602	35.2	1.1378474313247
7	2608	35.3	1.1535757426207
7	2614	35.4	1.137684270627
7	2635	35.5	1.1527140235722
7	2641	35.6	1.150356312366
7	2647	35.7	1.1382744675967
7	2668	35.8	1.138625913361
7	2674	35.9	1.1547448211722
7	2680	36	1.1514499870395
7	2686	36.1	1.1500060353676
7	2692	36.2	1.1408940586923
7	2698	36.3	1.1558519292752
7	2704	36.4	1.144291241054
7	2725	36.5	1.1579553801757
7	2731	36.6	1.1380275324691
7	2737	36.7	1.1342251014928
7	2758	36.8	1.1408828337459
7	2764	36.9	1.1537719047384
7	2770	37	1.1459443766336
7	2776	37.1	1.1443690830052
7	2782	37.2	1.1392832281133
7	2788	37.3	1.1436938982021
7	2794	37.4	1.1534961332523
7	2815	37.5	1.1479007496197
7	2821	37.6	1.1373914931055
7	2827	37.7	1.1469608944616
7	2848	37.8	1.1414611203346
7	2854	37.9	1.1472187869121
7	2860	38	1.141730019193
7	2866	38.1	1.1470281349881
7	2872	38.2	1.1383885619727
7	2878	38.3	1.1547958603946
7	2884	38.4	1.1403791873144
7	2905	38.5	1.1352404455878
7	2911	38.6	1.1378678656623
7	2917	38.7	1.1397940853059
7	2938	38.8	1.1346288617781
7	2944	38.9	1.140174067867
7	2950	39	1.1590049043362
7	2956	39.1	1.152869154886
7	2962	39.2	1.1496020292631
7	2968	39.3	1.1493647322962
7	2974	39.4	1.1529666685483
7	2995	39.5	1.1505938680964
7	3001	39.6	1.1582622657826
7	3007	39.7	1.136029705041
7	3028	39.8	1.1508944016223
7	3034	39.9	1.1467921084812
8	213	10.3	0.086088718280769
8	219	10.4	0.083086424670556
8	240	10.5	0.080183306754717
8	246	10.6	0.081195221203254
8	252	10.7	0.066086326033332
8	273	10.8	0.074131950606978
8	279	10.9	0.040671785748317
8	285	11	0.031969687686455
8	291	11.1	0.071704880573013
8	297	11.2	0.035899552933586
8	303	11.3	0.055280362536912
8	309	11.4	0.04882997299411
8	330	11.5	0.012101636231495
8	336	11.6	0.093168166075704
8	342	11.7	0.091287070303224
8	363	11.8	0.097978160087951
8	369	11.9	0.016738015715964
8	375	12	0.022184324311092
8	381	12.1	0.012998785474338
8	387	12.2	0.0021381657104941
8	393	12.3	0.020084143616259
8	399	12.4	0.053852063720114
8	420	12.5	0.021947082434781
8	426	12.6	0.088172557624057
8	432	12.7	0.036007898300886
8	453	12.8	0.085664671449922
8	459	12.9	0.0055331081384793
8	465	13	0.047815167182125
8	471	13.1	0.058533805888146
8	477	13.2	0.073544438858517
8	483	13.3	0.022576631349512
8	489	13.4	0.054384966404177
8	510	13.5	0.043156605167315
8	516	13.6	0.098121020197869
8	522	13.7	0.038236449914985
8	543	13.8	0.038790427753702
8	549	13.9	0.03830660013482
8	555	14	0.0056251924717798
8	561	14.1	0.031817970215343
8	567	14.2	0.06404920979403
8	573	14.3	0.056296804733574
8	579	14.4	0.03023688045796
8	600	14.5	0.09397745335009
8	606	14.6	0.033323328872211
8	612	14.7	0.032936212630011
8	633	14.8	0.078961743833497
8	639	14.9	0.087107370165177
8	645	15	0.068457165034488
8	651	15.1	0.063628922658973
8	686	15.2	0.042980322404765
8	692	15.3	0.056139848660678
8	698	15.4	0.0011626168154183
8	719	15.5	0.089795519318432
8	725	15.6	0.079112324141897
8	731	15.7	0.083869048883207
8	752	15.8	0.03468916779384
8	758	15.9	0.074670839868486
8	764	16	0.053368922718801
8	770	16.1	0.075557441194542
8	776	16.2	0.084103041351773
8	782	16.3	0.088962486083619
8	788	16.4	0.034367040800862
8	809	16.5	0.086181705049239
8	815	16.6	0.080341764329933
8	821	16.7	0.063127483427525
8	842	16.8	0.017900676908903
8	848	16.9	0.090289872884751
8	854	17	0.01620550933294
8	860	17.1	0.090390159888193
8	866	17.2	0.0023540534777566
8	872	17.3	0.053134880168363
8	878	17.4	0.002323890919797
8	899	17.5	0.039515448198654
8	905	17.6	0.026073641865514
8	911	17.7	0.096081221103668
8	932	17.8	0.071719304053113
8	938	17.9	0.08798034354113
8	944	18	0.070385980070569
8	950	18.1	0.088127228571102
8	956	18.2	0.068201682670042
8	962	18.3	0.058573701162823
8	968	18.4	0.093585249898024
8	989	18.5	0.030752788065002
8	995	18.6	0.043339855154045
8	1001	18.7	0.073461050889455
8	1022	18.8	0.047675194707699
8	1028	18.9	0.090605949400924
8	1034	19	0.042405350483023
8	1040	19.1	0.0070703802164634
8	1046	19.2	0.068143104505726
8	1052	19.3	0.033258962375112
8	1058	19.4	0.086820213799365
8	1079	19.5	0.028367280215025
8	1085	19.6	0.071059390902519
8	1091	19.7	0.08168086365331
8	1112	19.8	0.041348706698046
8	1118	19.9	0.097989244945348
8	1124	20	0.017105997167528
8	1130	20.1	0.099530451791361
8	1165	20.2	0.032218346069567
8	1171	20.3	0.07299920313526
8	1177	20.4	0.026480597956107
8	1198	20.5	0.0037811455084014
8	1204	20.6	0.075124686025083
8	1210	20.7	0.042384266410954
8	1231	20.8	0.040795807354153
8	1237	20.9	0.04277480985038
8	1243	21	0.077691836934537
8	1249	21.1	0.0047250990755854
8	1255	21.2	0.055287462146952
8	1261	21.3	0.015359133388847
8	1267	21.4	0.030052072252147
8	1288	21.5	0.070256304834038
8	1294	21.6	0.018620218033902
8	1300	21.7	0.060349426115863
8	1321	21.8	0.011889679916203
8	1327	21.9	0.041872712410986
8	1333	22	0.011826464044862
8	1339	22.1	0.030746840848588
8	1345	22.2	0.027474571857602
8	1351	22.3	0.049867561692372
8	1357	22.4	0.0043916360242291
8	1378	22.5	0.035600980347954
8	1384	22.6	0.05761449560523
8	1390	22.7	0.039360678312369
8	1411	22.8	0.098080679937266
8	1417	22.9	0.069842518377118
8	1423	23	0.033982646162621
8	1429	23.1	0.070992239005864
8	1435	23.2	0.038198457309045
8	1441	23.3	0.057123130140826
8	1447	23.4	0.086452593142167
8	1468	23.5	0.070171767217108
8	1474	23.6	0.043003508844413
8	1480	23.7	0.040912723704242
8	1501	23.8	0.04256747441832
8	1507	23.9	0.034679918456823
8	1513	24	0.034789672563784
8	1519	24.1	0.056858156551607
8	1525	24.2	0.010345340170897
8	1531	24.3	0.063243812834844
8	1537	24.4	0.056413508066908
8	1558	24.5	0.010807664180175
8	1564	24.6	0.019380600820296
8	1570	24.7	0.029611141444184
8	1591	24.8	0.089977311342955
8	1597	24.9	0.0080517387017609
8	1603	25	0.028575870161877
8	1609	25.1	0.00011529971379765
8	1644	25.2	0.085055169533007
8	1650	25.3	0.013187393941917
8	1656	25.4	0.08375070686452
8	1677	25.5	0.038444043253548
8	1683	25.6	0.087618001759984
8	1689	25.7	0.015199177269823
8	1710	25.8	0.019268103968352
8	1716	25.9	0.04308992556762
8	1722	26	0.059281670232304
8	1728	26.1	0.093083300977014
8	1734	26.2	0.030257122754119
8	1740	26.3	0.054645731975325
8	1746	26.4	0.027794439485297
8	1767	26.5	0.013361767400056
8	1773	26.6	0.0024478487903257
8	1779	26.7	0.014419665699825
8	1800	26.8	0.098828591848724
8	1806	26.9	0.064002194092609
8	1812	27	0.027000943827443
8	1818	27.1	0.082837032247335
8	1824	27.2	0.047896339697764
8	1830	27.3	0.094566201395355
8	1836	27.4	0.080000347457826
8	1857	27.5	0.098147820588201
8	1863	27.6	0.020630229753442
8	1869	27.7	0.077607531729155
8	1890	27.8	0.065464832144789
8	1896	27.9	0.0071918707340957
8	1902	28	0.029558560065925
8	1908	28.1	0.096816107607447
8	1914	28.2	0.083530584350229
8	1920	28.3	0.037852159328758
8	1926	28.4	0.042277141474187
8	1947	28.5	0.07621071850881
8	1953	28.6	0.0065785998245704
8	1959	28.7	0.038603404746391
8	1980	28.8	0.046436720271595
8	1986	28.9	0.041009002225474
8	1992	29	0.026987797371112
8	1998	29.1	0.068805500445888
8	2004	29.2	0.060177893261425
8	2010	29.3	0.079015624593012
8	2016	29.4	0.081380699458532
8	2037	29.5	0.0055627611465758
8	2043	29.6	0.026044920342975
8	2049	29.7	0.050954119814558
8	2070	29.8	0.077258537081071
8	2076	29.9	0.074564351723529
8	2082	30	0.094197083753533
8	2088	30.1	0.056558337109163
8	2123	30.2	0.068820412317292
8	2129	30.3	0.030365651426838
8	2135	30.4	-0.2
8	2156	30.5	-0.2
8	2162	30.6	-0.2
8	2168	30.7	-0.2
8	2189	30.8	-0.2
8	2195	30.9	-0.2
8	2201	31	-0.2
8	2207	31.1	-0.2
8	2213	31.2	-0.2
8	2219	31.3	-0.2
8	2225	31.4	-0.2
8	2246	31.5	-0.2
8	2252	31.6	-0.2
8	2258	31.7	-0.2
8	2279	31.8	-0.2
8	2285	31.9	-0.2
8	2291	32	-0.2
8	2297	32.1	-0.2
8	2303	32.2	-0.2
8	2309	32.3	-0.2
8	2315	32.4	-0.2
8	2336	32.5	-0.2
8	2342	32.6	-0.2
8	2348	32.7	-0.2
8	2369	32.8	-0.2
8	2375	32.9	-0.2
8	2381	33	-0.2
8	2387	33.1	-0.12272155670403
8	2393	33.2	0.047691415715963
8	2399	33.3	0.0040629670489578
8	2405	33.4	-0.030488873645663
8	2426	33.5	0.049253799789585
8	2432	33.6	-0.018180736526847
8	2438	33.7	-0.021721538645215
8	2459	33.8	0.0050515486625952
8	2465	33.9	-0.0089405444217844
8	2471	34	0.018594671436585
8	2477	34.1	-0.03091556369327
8	2483	34.2	-0.027707125595771
8	2489	34.3	0.074632374383509
8	2495	34.4	-0.03998472536914
8	2516	34.5	0.03853110014461
8	2522	34.6	-0.058479157020338
8	2528	34.7	0.032079997612163
8	2549	34.8	-0.016936160391197
8	2555	34.9	0.038214146811515
8	2561	35	0.0038432077039036
8	2567	35.1	-0.03432085220702
8	2602	35.2	0.013244354957714
8	2608	35.3	-0.0584819216514
8	2614	35.4	0.01751066991128
8	2635	35.5	0.001666162791662
8	2641	35.6	-0.015505611500703
8	2647	35.7	0.08202973047737
8	2668	35.8	-0.04687700367067
8	2674	35.9	-0.0032283600885424
8	2680	36	-0.037746031116694
8	2686	36.1	0.066978885279968
8	2692	36.2	0.0051318753510715
8	2698	36.3	0.014053483260796
8	2704	36.4	0.0083864313317461
8	2725	36.5	-0.0913099686848
8	2731	36.6	0.025961277587339
8	2737	36.7	-0.011523636803031
8	2758	36.8	0.050342280603946
8	2764	36.9	-0.030468006571755
8	2770	37	0.052245490415953
8	2776	37.1	-0.042167232767679
8	2782	37.2	-0.049186754180119
8	2788	37.3	0.010098989284598
8	2794	37.4	0.053834628639743
8	2815	37.5	-0.06234112016391
8	2821	37.6	0.072986853215843
8	2827	37.7	-0.071761719626375
8	2848	37.8	0.00079411168117105
8	2854	37.9	0.014217512030154
8	2860	38	0.016875464911573
8	2866	38.1	-0.024384003435262
8	2872	38.2	0.058126768586226
8	2878	38.3	-0.055592327006161
8	2884	38.4	0.023106686212123
8	2905	38.5	0.060463983519002
8	2911	38.6	-0.033399665495381
8	2917	38.7	0.019909265171736
8	2938	38.8	-0.083368852687999
8	2944	38.9	0.050345908035524
8	2950	39	-0.0019021061016244
8	2956	39.1	-0.014208114892245
8	2962	39.2	0.027088791341521
8	2968	39.3	0.02316843289882
8	2974	39.4	-0.068521746085025
8	2995	39.5	0.063226982112974
8	3001	39.6	-0.032147106854245
8	3007	39.7	0.028700195834972
8	3028	39.8	0.012647253787145
8	3034	39.9	-0.076434702798724
9	213	10.3	1.1112459166707
9	219	10.4	1.1118000301583
9	240	10.5	1.1123233352344
9	246	10.6	1.112882293534
9	252	10.7	1.1131515754991
9	273	10.8	1.1137368705576
9	279	10.9	1.113517102
9	285	11	1.1135688775203
9	291	11.1	1.114649592042
9	297	11.2	1.1142414904718
9	303	11.3	1.1149300399043
9	309	11.4	1.1150985786981
9	330	11.5	1.1144084275101
9	336	11.6	1.1167506751135
9	342	11.7	1.1173486122459
9	363	11.8	1.1182213494905
9	369	11.9	1.1160686856461
9	375	12	1.1163399488016
9	381	12.1	1.1161448281441
9	387	12.2	1.1158421863412
9	393	12.3	1.1164670357147
9	399	12.4	1.1177882082838
9	420	12.5	1.1169275146299
9	426	12.6	1.1196057215984
9	432	12.7	1.1180729191351
9	453	12.8	1.1203603899235
9	459	12.9	1.1174834140975
9	465	13	1.1193073779571
9	471	13.1	1.1200746407894
9	477	13.2	1.1211443685343
9	483	13.3	1.1191904624598
9	489	13.4	1.1208365026453
9	510	13.5	1.120611633665
9	516	13.6	1.1237140422109
9	522	13.7	1.1211806448949
9	543	13.8	1.121430053627
9	549	13.9	1.1216271099586
9	555	14	1.1200616856385
9	561	14.1	1.1215201482692
9	567	14.2	1.1235285316927
9	573	14.3	1.1234796425296
9	579	14.4	1.1222779714441
9	600	14.5	1.126340701425
9	606	14.6	1.1231589480956
9	612	14.7	1.1233222114675
9	633	14.8	1.1264837117005
9	639	14.9	1.1275679263977
9	645	15	1.1268707935932
9	651	15.1	1.1269722275181
9	686	15.2	1.1258958038846
9	692	15.3	1.1271029053813
9	698	15.4	1.1234404206654
9	719	15.5	1.1299842623245
9	725	15.6	1.1297807100492
9	731	15.7	1.1306918897991
9	752	15.8	1.1273060176112
9	758	15.9	1.1307465252375
9	764	16	1.129464975532
9	770	16.1	1.1316705149901
9	776	16.2	1.1329184925845
9	782	16.3	1.1339303877839
9	788	16.4	1.1296067397491
9	809	16.5	1.1345325782459
9	815	16.6	1.1345757482358
9	821	16.7	1.1334686513054
9	842	16.8	1.1295323076579
9	848	16.9	1.1366470422962
9	854	17	1.129936252798
9	860	17.1	1.1374031069262
9	866	17.2	1.1291133680923
9	872	17.3	1.1342291475531
9	878	17.4	1.1293814002899
9	899	17.5	1.133168571733
9	905	17.6	1.1320118468523
9	911	17.7	1.1395077342032
9	932	17.8	1.1375519801535
9	938	17.9	1.1398108153493
9	944	18	1.1384503005084
9	950	18.1	1.1409281759215
9	956	18.2	1.1392326059435
9	962	18.3	1.1385497396109
9	968	18.4	1.1430748522777
9	989	18.5	1.1361735896421
9	995	18.6	1.1378543605469
9	1001	18.7	1.1417835678032
9	1022	18.8	1.1390744181892
9	1028	18.9	1.1447443472536
9	1034	19	1.1392349122207
9	1040	19.1	1.1350133524129
9	1046	19.2	1.1428225027174
9	1052	19.3	1.1387440003203
9	1058	19.4	1.1459378399282
9	1079	19.5	1.1387771595702
9	1085	19.6	1.1446155654305
9	1091	19.7	1.1465260731736
9	1112	19.8	1.1415422654834
9	1118	19.9	1.1496410987637
9	1124	20	1.1389812201878
9	1130	20.1	1.1506893613282
9	1165	20.2	1.1417349191598
9	1171	20.3	1.1477823302324
9	1177	20.4	1.1414960506095
9	1198	20.5	1.1383620006857
9	1204	20.6	1.148776342386
9	1210	20.7	1.1444150074625
9	1231	20.8	1.1444270499286
9	1237	20.9	1.1449604993532
9	1243	21	1.1505034577211
9	1249	21.1	1.1398958036384
9	1255	21.2	1.1476092847132
9	1261	21.3	1.1418140358231
9	1267	21.4	1.1441484919876
9	1288	21.5	1.1505668928546
9	1294	21.6	1.1429234290641
9	1300	21.7	1.1495782083528
9	1321	21.8	1.1422812627485
9	1327	21.9	1.1470870137577
9	1333	22	1.1425465943492
9	1339	22.1	1.1456207120943
9	1345	22.2	1.1452673152059
9	1351	22.3	1.1490352174006
9	1357	22.4	1.1419617790457
9	1378	22.5	1.1470370546987
9	1384	22.6	1.1508514275442
9	1390	22.7	1.1481882207911
9	1411	22.8	1.1582497114985
9	1417	22.9	1.1541394025622
9	1423	23	1.1484732613153
9	1429	23.1	1.1550145889885
9	1435	23.2	1.149794122871
9	1441	23.3	1.153306065867
9	1447	23.4	1.1588374795158
9	1468	23.5	1.1565233690226
9	1474	23.6	1.1521038889702
9	1480	23.7	1.1519804615863
9	1501	23.8	1.1525180074941
9	1507	23.9	1.1513343365658
9	1513	24	1.151551147121
9	1519	24.1	1.1558035167697
9	1525	24.2	1.1475739888582
9	1531	24.3	1.1574088414789
9	1537	24.4	1.1565302232872
9	1558	24.5	1.1483217855326
9	1564	24.6	1.1499802426002
9	1570	24.7	1.1520058551682
9	1591	24.8	1.1636615223424
9	1597	24.9	1.1485618197896
9	1603	25	1.1525167581325
9	1609	25.1	1.1472325440618
9	1644	25.2	1.1635911227508
9	1650	25.3	1.1501666872892
9	1656	25.4	1.1640111619377
9	1677	25.5	1.155621176201
9	1683	25.6	1.1656227664163
9	1689	25.7	1.1517168061784
9	1710	25.8	1.1526063067518
9	1716	25.9	1.1574798227593
9	1722	26	1.1610086997599
9	1728	26.1	1.1683073351687
9	1734	26.2	1.1559951619384
9	1740	26.3	1.1611944993548
9	1746	26.4	1.15595863351
9	1767	26.5	1.1531213227808
9	1773	26.6	1.1509320559214
9	1779	26.7	1.1534222527256
9	1800	26.8	1.1711953881671
9	1806	26.9	1.164482775558
9	1812	27	1.157007990145
9	1818	27.1	1.1691145991037
9	1824	27.2	1.1621108154783
9	1830	27.3	1.1725770680309
9	1836	27.4	1.1700294773321
9	1857	27.5	1.174621420345
9	1863	27.6	1.1579569993144
9	1869	27.7	1.1708363968723
9	1890	27.8	1.1686005835183
9	1896	27.9	1.1557966310838
9	1902	28	1.1608931938617
9	1908	28.1	1.1764677396727
9	1914	28.2	1.1740707134767
9	1920	28.3	1.1639848368205
9	1926	28.4	1.1652351001945
9	1947	28.5	1.1734647221319
9	1953	28.6	1.1575280139268
9	1959	28.7	1.1651008732286
9	1980	28.8	1.167183081814
9	1986	28.9	1.1661656981722
9	1992	29	1.1630536545245
9	1998	29.1	1.1732529310197
9	2004	29.2	1.1716059205073
9	2010	29.3	1.1765910077501
9	2016	29.4	1.1777087868582
9	2037	29.5	1.1595277837823
9	2043	29.6	1.1645923143781
9	2049	29.7	1.1709033734822
9	2070	29.8	1.1777918091558
9	2076	29.9	1.1776302105688
9	2082	30	1.1831271734294
9	2088	30.1	1.1741412479248
9	2123	30.2	1.1776481617887
9	2129	30.3	1.1681616236692
9	2135	30.4	0.973
9	2156	30.5	0.973
9	2162	30.6	0.973
9	2168	30.7	0.973
9	2189	30.8	0.973
9	2195	30.9	0.973
9	2201	31	0.973
9	2207	31.1	0.973
9	2213	31.2	0.973
9	2219	31.3	0.973
9	2225	31.4	0.973
9	2246	31.5	0.973
9	2252	31.6	0.973
9	2258	31.7	0.973
9	2279	31.8	0.973
9	2285	31.9	0.973
9	2291	32	0.973
9	2297	32.1	0.973
9	2303	32.2	0.973
9	2309	32.3	0.973
9	2315	32.4	0.973
9	2336	32.5	0.973
9	2342	32.6	0.973
9	2348	32.7	0.973
9	2369	32.8	0.973
9	2375	32.9	0.973
9	2381	33	0.973
9	2387	33.1	0.973
9	2393	33.2	1.1397264993386
9	2399	33.3	1.1345159973333
9	2405	33.4	1.1302453791877
9	2426	33.5	1.140051186564
9	2432	33.6	1.1318496323151
9	2438	33.7	1.1313311737576
9	2459	33.8	1.1345549468386
9	2465	33.9	1.1328402532837
9	2471	34	1.1362256444733
9	2477	34.1	1.1301664746234
9	2483	34.2	1.1304332097927
9	2489	34.3	1.1430468301129
9	2495	34.4	1.1291133058051
9	2516	34.5	1.1386984801723
9	2522	34.6	1.1268395366991
9	2528	34.7	1.13777523515
9	2549	34.8	1.1318406717789
9	2555	34.9	1.1386309319799
9	2561	35	1.1345233376627
9	2567	35.1	1.129800480185
9	2602	35.2	1.1355443491482
9	2608	35.3	1.1267627178607
9	2614	35.4	1.1358395707357
9	2635	35.5	1.1339676474435
9	2641	35.6	1.1318603225585
9	2647	35.7	1.143959337279
9	2668	35.8	1.1282784955569
9	2674	35.9	1.133464725905
9	2680	36	1.1292059641357
9	2686	36.1	1.1420142116404
9	2692	36.2	1.134630617957
9	2698	36.3	1.1357731441005
9	2704	36.4	1.1351338432378
9	2725	36.5	1.1228842085283
9	2731	36.6	1.136894341161
9	2737	36.7	1.1323854611112
9	2758	36.8	1.1400275105983
9	2764	36.9	1.1302199256241
9	2770	37	1.1403881799688
9	2776	37.1	1.1288651468027
9	2782	37.2	1.1278482080818
9	2788	37.3	1.1349037198649
9	2794	37.4	1.1404113862861
9	2815	37.5	1.1262993957699
9	2821	37.6	1.1427737745928
9	2827	37.7	1.1251898440769
9	2848	37.8	1.1337706755726
9	2854	37.9	1.1354312932751
9	2860	38	1.1358348412458
9	2866	38.1	1.1308223011409
9	2872	38.2	1.1409532202638
9	2878	38.3	1.1271363026739
9	2884	38.4	1.1365830087404
9	2905	38.5	1.1414091338948
9	2911	38.6	1.1299670932452
9	2917	38.7	1.1364519403326
9	2938	38.8	1.1238085672478
9	2944	38.9	1.1399090927586
9	2950	39	1.1336643408621
9	2956	39.1	1.1321324470972
9	2962	39.2	1.1371936253388
9	2968	39.3	1.1368495642881
9	2974	39.4	1.1256132894701
9	2995	39.5	1.1416297565746
9	3001	39.6	1.130050424251
9	3007	39.7	1.1374660402643
9	3028	39.8	1.1356052913147
9	3034	39.9	1.1246634796245
0	3040	40	38.342252904269
0	3046	40.1	38.413751547194
0	3081	40.2	38.485066880957
0	3087	40.3	38.556765156098
0	3093	40.4	38.628924524113
0	3114	40.5	38.701484643752
0	3120	40.6	38.77459201708
0	3126	40.7	38.847536560735
0	3147	40.8	38.920091784991
0	3153	40.9	38.993159043782
0	3159	41	39.065796996568
0	3165	41.1	39.139414026755
0	3171	41.2	39.213230858429
0	3177	41.3	39.287590817057
0	3183	41.4	39.361626485687
0	3204	41.5	39.436286220238
[...]
9	26918	289.3	1.1345523594359
9	26924	289.4	1.131623520365
9	26945	289.5	1.143251083659
9	26951	289.6	1.1315694004692
9	26957	289.7	1.1291785853248
9	26978	289.8	1.1422182389827
9	26984	289.9	1.1253226045976
9	26990	290	1.1322496639432
9	26996	290.1	1.138744681064
9	27031	290.2	1.134148380815
9	27037	290.3	1.1358646864401
9	27043	290.4	1.1374234498533
9	27064	290.5	1.1318656016574
9	27070	290.6	1.1242831871432
9	27076	290.7	1.1350456128487
9	27097	290.8	1.1412036314148
9	27103	290.9	1.125426131539
9	27109	291	1.1410833265853
9	27115	291.1	1.1348277911485
9	27121	291.2	1.1357969674
9	27127	291.3	1.1248356215071
9	27133	291.4	1.1326462149916
9	27154	291.5	1.141869285794
9	27160	291.6	1.1293244480829
9	27166	291.7	1.138375749134
9	27187	291.8	1.1368502673493
9	27193	291.9	1.1305022664753
9	27199	292	1.1319717356901
9	27205	292.1	1.1392234798545
9	27211	292.2	1.125495526897
9	27217	292.3	1.1377197739374
9	27223	292.4	1.1371723755322
9	27244	292.5	1.1295779519533
9	27250	292.6	1.1313706470816
9	27256	292.7	1.1395474117256
9	27277	292.8	1.1293509614385
9	27283	292.9	1.1371937269647
9	27289	293	1.1273292973937
9	27295	293.1	1.1360502290829
9	27301	293.2	1.1389195930445
9	27307	293.3	1.1382016906471
9	27313	293.4	1.1262060380959
9	27334	293.5	1.1395527931722
9	27340	293.6	1.1349861518313
9	27346	293.7	1.1241040317323
9	27367	293.8	1.1328434428667
9	27373	293.9	1.142750906227
9	27379	294	1.1336039341616
9	27385	294.1	1.1356945984656
9	27391	294.2	1.1304157461527
9	27397	294.3	1.1288801288303
9	27403	294.4	1.1357451487295
9	27424	294.5	1.1320070915564
9	27430	294.6	1.1414322401545
9	27436	294.7	1.127818252538
9	27457	294.8	1.1314632072655
9	27463	294.9	1.141629570349
9	27469	295	1.1289347096727
9	27475	295.1	1.1374044466843
9	27510	295.2	1.1353143088725
9	27516	295.3	1.1256351714054
9	27522	295.4	1.1413938831185
9	27543	295.5	1.1369746294986
9	27549	295.6	1.1305872048104
9	27555	295.7	1.1332096315567
9	27576	295.8	1.130153757028
9	27582	295.9	1.1313355966237
9	27588	296	1.1353116113531
9	27594	296.1	1.132335072838
9	27600	296.2	1.1393432269363
9	27606	296.3	1.1308831109235
9	27612	296.4	1.1388954090314
9	27633	296.5	1.1369794374181
9	27639	296.6	1.1304156215965
9	27645	296.7	1.1298443896376
9	27666	296.8	1.1390715473494
9	27672	296.9	1.126766489497
9	27678	297	1.134587206531
9	27684	297.1	1.1412005017352
9	27690	297.2	1.1323342606012
9	27696	297.3	1.1278728935946
9	27702	297.4	1.1409849719756
9	27723	297.5	1.1329220045524
9	27729	297.6	1.1338286130071
9	27735	297.7	1.1283143912103
9	27756	297.8	1.1433131817916
9	27762	297.9	1.1336536367084
9	27768	298	1.1278412518815
9	27774	298.1	1.1361074942752
9	27780	298.2	1.1310207033008
9	27786	298.3	1.1383947018355
9	27792	298.4	1.1260835112245
9	27813	298.5	1.135527812555
9	27819	298.6	1.1424405098406
9	27825	298.7	1.1252584352293
9	27846	298.8	1.1314691424365
9	27852	298.9	1.1339972283028
9	27858	299	1.136233334759
9	27864	299.1	1.1414268896044
9	27870	299.2	1.1284636533201
9	27876	299.3	1.1374909668933
9	27882	299.4	1.125557192742
9	27903	299.5	1.1367866051026
9	27909	299.6	1.135106765061
9	27915	299.7	1.1327938017965
9	27936	299.8	1.1369909892089
9	27942	299.9	1.1347317928193
9	27948	300	1.1270215604102
9	27954	300.1	1.1411995538558
9	27989	300.2	1.1376090455289
9	27995	300.3	1.1296418074487
9	28001	300.4	1.1291304597149
9	28022	300.5	1.1355056684391
9	28028	300.6	1.1299593704492
9	28034	300.7	1.1443727592274
9	28055	300.8	1.124163717093
9	28061	300.9	1.1404446192536
9	28067	301	1.1326474769005
9	28073	301.1	1.1344683738497
9	28079	301.2	1.1378264931858
9	28085	301.3	1.1324369858749
9	28091	301.4	1.1279029992027
9	28112	301.5	1.1427835759921
9	28118	301.6	1.1327343382686
9	28124	301.7	1.1354282733806
9	28145	301.8	1.1238615691587
9	28151	301.9	1.136690373921
9	28157	302	1.139422258121
9	28163	302.1	1.1266550523851
9	28169	302.2	1.1313244043568
9	28175	302.3	1.1340613131782
9	28181	302.4	1.1338402805389
9	28202	302.5	1.1451365892794
9	28208	302.6	1.1269260075732
9	28214	302.7	1.1379922031954
9	28235	302.8	1.1301891133968
9	28241	302.9	1.1369307426451
9	28247	303	1.1360318085162
9	28253	303.1	1.130443505167
9	28259	303.2	1.1332886496778
9	28265	303.3	1.1278106438003
9	28271	303.4	1.1455172924913
9	28292	303.5	1.1308866974693
9	28298	303.6	1.1271966830576
9	28304	303.7	1.1360982923328
9	28325	303.8	1.1317532613117
9	28331	303.9	1.1357911185915
9	28337	304	1.1325868884995
9	28343	304.1	1.1370744568513
9	28349	304.2	1.1374892815773
9	28355	304.3	1.1265666062744
9	28361	304.4	1.136742407827
9	28382	304.5	1.1392109546788
9	28388	304.6	1.1258538540634
9	28394	304.7	1.1318519927146
9	28415	304.8	1.1412929135959
9	28421	304.9	1.1346204825274
9	28427	305	1.136639301298
9	28433	305.1	1.1268821316363
9	28468	305.2	1.1301879793004
9	28474	305.3	1.1439556539457
9	28480	305.4	1.1297305375794
9	28501	305.5	1.1387373323022
9	28507	305.6	1.1348872877481
9	28513	305.7	1.1263152782534
9	28534	305.8	1.1313064801806
9	28540	305.9	1.1403132491915
9	28546	306	1.1273368277091
9	28552	306.1	1.1431960774132
9	28558	306.2	1.1325665885019
9	28564	306.3	1.1258432657661
9	28570	306.4	1.1385745359446
9	28591	306.5	1.1326511760382
9	28597	306.6	1.1409785553658
9	28603	306.7	1.1329833408923
9	28624	306.8	1.1349784381827
9	28630	306.9	1.1236465967446
9	28636	307	1.1433223881828
9	28642	307.1	1.125253194516
9	28648	307.2	1.1399283717931
9	28654	307.3	1.128414301949
9	28660	307.4	1.139165306278
9	28681	307.5	1.1351691333835
9	28687	307.6	1.1361793537633
9	28693	307.7	1.1317546919037
9	28714	307.8	1.1316266425859
9	28720	307.9	1.1296351480765
9	28726	308	1.1382713144474
9	28732	308.1	1.1275307609068
9	28738	308.2	1.1389929096017
9	28744	308.3	1.1403424730276
9	28750	308.4	1.1292653902334
9	28771	308.5	1.1305481063471
9	28777	308.6	1.1394707143667
9	28783	308.7	1.1282769549788
9	28804	308.8	1.1362134936297
9	28810	308.9	1.1398755612301
9	28816	309	1.1248763643173
9	28822	309.1	1.1364103911305
9	28828	309.2	1.1398406511575
9	28834	309.3	1.1292146725407
9	28840	309.4	1.136244198063
9	28861	309.5	1.1266938950275
9	28867	309.6	1.1411198536449
9	28873	309.7	1.1259117285035
9	28894	309.8	1.1385820862079
9	28900	309.9	1.1366392133525
9	28906	310	1.1279309244911
9	28912	310.1	1.1351746669807
9	28947	310.2	1.137318716772
9	28953	310.3	1.1312614593979
9	28959	310.4	1.1319883392196
9	28980	310.5	1.1328558208593
9	28986	310.6	1.1341537365754
9	28992	310.7	1.1418618319598
9	29013	310.8	1.1258827279125
9	29019	310.9	1.1433679615907
9	29025	311	1.132336098494
9	29031	311.1	1.1287998774256
9	29037	311.2	1.1401863143822
9	29043	311.3	1.1280228396313
9	29049	311.4	1.1375202014918
9	29070	311.5	1.1324725674136
9	29076	311.6	1.1353481156723
9	29082	311.7	1.1370454881353
9	29103	311.8	1.1287530505857
9	29109	311.9	1.1281963061552
9	29115	312	1.1380235166362
9	29121	312.1	1.1377206685763
9	29127	312.2	1.1259146200414
9	29133	312.3	1.1407216284381
9	29139	312.4	1.1301316309454
9	29160	312.5	1.1345795573798
9	29166	312.6	1.1299029114179
9	29172	312.7	1.1341428903247
9	29193	312.8	1.1432702176677
9	29199	312.9	1.1348398004612
9	29205	313	1.1251580098611
9	29211	313.1	1.1325667956795
9	29217	313.2	1.1388086877878
9	29223	313.3	1.1314474370682
9	29229	313.4	1.1415701136212
9	29250	313.5	1.132225614783
9	29256	313.6	1.1349055094815
9	29262	313.7	1.1284625884944
9	29283	313.8	1.1388805318715
9	29289	313.9	1.1357598577534
9	29295	314	1.1310827564828
9	29301	314.1	1.1293467890669
9	29307	314.2	1.13503570621
9	29313	314.3	1.1369301019033
9	29319	314.4	1.1277717119608
9	29340	314.5	1.1406753630546
9	29346	314.6	1.134194136049
9	29352	314.7	1.1302936810671
9	29373	314.8	1.1348759762806
9	29379	314.9	1.134301166322
9	29385	315	1.1375421477781
9	29391	315.1	1.1297264182817
9	29426	315.2	1.136950893912
9	29432	315.3	1.1323500862995
9	29438	315.4	1.1297237704297
9	29459	315.5	1.1312751947128
9	29465	315.6	1.1356914567059
9	29471	315.7	1.1383367538553
9	29492	315.8	1.1316136845303
9	29498	315.9	1.1319492871363
9	29504	316	1.1379022071646
9	29510	316.1	1.134603203313
9	29516	316.2	1.1367701874703
9	29522	316.3	1.1266402554471
9	29528	316.4	1.1325150559522
9	29549	316.5	1.1402279742132
9	29555	316.6	1.1282147893718
9	29561	316.7	1.1358994792717
9	29582	316.8	1.1316904927014
9	29588	316.9	1.138387469602
9	29594	317	1.1297793053778
9	29600	317.1	1.1379865807823
9	29606	317.2	1.137934830517
9	29612	317.3	1.1283619074664
9	29618	317.4	1.1350613432843
9	29639	317.5	1.1364245652425
9	29645	317.6	1.1261352564894
9	29651	317.7	1.140036190783
9	29672	317.8	1.1382513173402
9	29678	317.9	1.1298452657696
9	29684	318	1.1334201997991
9	29690	318.1	1.1285386868855
9	29696	318.2	1.1344860244204
9	29702	318.3	1.1412266283419
9	29708	318.4	1.1261547455288
9	29729	318.5	1.1410992368096
9	29735	318.6	1.1328413264546
9	29741	318.7	1.1372841728692
9	29762	318.8	1.134363137673
9	29768	318.9	1.1263679514778
9	29774	319	1.1308175621745
9	29780	319.1	1.1390276548452
9	29786	319.2	1.1295647238035
9	29792	319.3	1.1343450969798
9	29798	319.4	1.1353451000201
9	29819	319.5	1.1299546255663
9	29825	319.6	1.1358312856487
9	29831	319.7	1.1403183326283
9	29852	319.8	1.1276524127781
9	29858	319.9	1.13494189858
9	29864	320	1.1374426706616
9	29870	320.1	1.1379772860536
9	29905	320.2	1.1323774760845
9	29911	320.3	1.1268347229022
9	29917	320.4	1.1405911136609
9	29938	320.5	1.1247997739122
9	29944	320.6	1.1374071023808
9	29950	320.7	1.136488103565
9	29971	320.8	1.1327455614213
9	29977	320.9	1.1333551430082
9	29983	321	1.1294323167287
9	29989	321.1	1.1437487508652
9	29995	321.2	1.1326738321336
9	30001	321.3	1.1285953186261
9	30007	321.4	1.1396488046382
9	30028	321.5	1.1262343895304
9	30034	321.6	1.1402437093977
9	30040	321.7	1.1360335861961
9	30061	321.8	1.1357122978847
9	30067	321.9	1.1273193897854
9	30073	322	1.1310108219544
9	30079	322.1	1.1406083347461
9	30085	322.2	1.1260735080555
9	30091	322.3	1.1356619694673
9	30097	322.4	1.1424836695148
9	30118	322.5	1.1277639287658
9	30124	322.6	1.1339192793902
9	30130	322.7	1.1384150554026
9	30151	322.8	1.1323879157736
9	30157	322.9	1.1324328240083
9	30163	323	1.139046491427
9	30169	323.1	1.1328373946092
9	30175	323.2	1.1338814336281
9	30181	323.3	1.1313744765218
9	30187	323.4	1.1294009490295
9	30208	323.5	1.1327352264967
9	30214	323.6	1.1420815200813
9	30220	323.7	1.1267769206365
9	30241	323.8	1.1347728264343
9	30247	323.9	1.1310977648486
9	30253	324	1.1327406282409
9	30259	324.1	1.1442202801053
9	30265	324.2	1.1346193535136
9	30271	324.3	1.1252191716063
9	30277	324.4	1.141710875226
9	30298	324.5	1.1336486058919
9	30304	324.6	1.1255676770787
9	30310	324.7	1.1330048406113
9	30331	324.8	1.1414070222792
9	30337	324.9	1.1275204553559
9	30343	325	1.1335190041431
9	30349	325.1	1.1368563825397
9	30384	325.2	1.1343263061669
9	30390	325.3	1.1337372346253
9	30396	325.4	1.1372743807201
9	30417	325.5	1.1300531351895
9	30423	325.6	1.1385140514011
9	30429	325.7	1.1348375849123
9	30450	325.8	1.1311198915677
9	30456	325.9	1.130311803956
9	30462	326	1.1348351628664
9	30468	326.1	1.1296066728057
9	30474	326.2	1.1376066808216
9	30480	326.3	1.1401330357301
9	30486	326.4	1.133814592501
9	30507	326.5	1.1349062792692
9	30513	326.6	1.13286152845
9	30519	326.7	1.1289996410591
9	30540	326.8	1.1308790974537
9	30546	326.9	1.1330419575519
9	30552	327	1.1398412577813
9	30558	327.1	1.1319726499062
9	30564	327.2	1.130769582761
9	30570	327.3	1.1399338063563
9	30576	327.4	1.1304671394723
9	30597	327.5	1.1391098797851
9	30603	327.6	1.1302914566345
9	30609	327.7	1.1376920703766
9	30630	327.8	1.130453685129
9	30636	327.9	1.1347241352687
9	30642	328	1.1334868844529
9	30648	328.1	1.1362867880802
9	30654	328.2	1.1353597060185
9	30660	328.3	1.1323252073343
9	30666	328.4	1.1344485530369
9	30687	328.5	1.1279030394568
9	30693	328.6	1.1339909154955
9	30699	328.7	1.1354270592762
9	30720	328.8	1.1400190176237
9	30726	328.9	1.1281999246583
9	30732	329	1.1399526175254
9	30738	329.1	1.1348583218793
9	30744	329.2	1.129959831997
9	30750	329.3	1.1353590637869
9	30756	329.4	1.1296280904403
9	30777	329.5	1.1297330502947
9	30783	329.6	1.1362635022358
9	30789	329.7	1.1331971535263
9	30810	329.8	1.1315026857877
9	30816	329.9	1.1375942800011
9	30822	330	1.1345237467665
9	30828	330.1	1.133553444122
9	30863	330.2	1.1305879220709
9	30869	330.3	1.1396557407817
9	30875	330.4	1.1289181842305
9	30896	330.5	1.1355180669558
9	30902	330.6	1.1381485004226
9	30908	330.7	1.1376291168302
9	30929	330.8	1.1316754740674
9	30935	330.9	1.1279707390884
9	30941	331	1.135284297811
9	30947	331.1	1.1376551053382
9	30953	331.2	1.1320139790969
9	30959	331.3	1.1311148041705
9	30965	331.4	1.1404892506464
9	30986	331.5	1.1302769327017
9	30992	331.6	1.1341173568762
9	30998	331.7	1.1323678778262
9	31019	331.8	1.1341260987815
9	31025	331.9	1.1357981919989
9	31031	332	1.1290758602283
9	31037	332.1	1.1424686311123
9	31043	332.2	1.1344959789359
9	31049	332.3	1.1293316046109
9	31055	332.4	1.1280602903776
9	31076	332.5	1.1414164958112
9	31082	332.6	1.1353123184931
9	31088	332.7	1.1247436579612
9	31109	332.8	1.1431772899825
9	31115	332.9	1.1314793933937
9	31121	333	1.1295737901392
9	31127	333.1	1.1396165654532
9	31133	333.2	1.1343932356548
9	31139	333.3	1.131933319264
9	31145	333.4	1.1291292767448
9	31166	333.5	1.1322290060357
9	31172	333.6	1.1447100704143
9	31178	333.7	1.1324446318245
9	31199	333.8	1.1242901890703
9	31205	333.9	1.1382009288543
9	31211	334	1.1343583114394
9	31217	334.1	1.1306312266791
9	31223	334.2	1.1434287223083
9	31229	334.3	1.1344374384931
9	31235	334.4	1.1223949549841
9	31256	334.5	1.1353775658852
9	31262	334.6	1.1347342029045
9	31268	334.7	1.1411638837088
9	31289	334.8	1.1300712830153
9	31295	334.9	1.1282315139179
9	31301	335	1.1337242249643
9	31307	335.1	1.1452634677557
9	31342	335.2	1.1249467256737
9	31348	335.3	1.1431197685292
9	31354	335.4	1.1221023939804
9	31375	335.5	1.140709486035
9	31381	335.6	1.1270853912616
9	31387	335.7	1.1411997575614
9	31408	335.8	1.1348830857632
9	31414	335.9	1.13370210034
9	31420	336	1.1288581751403
9	31426	336.1	1.1404081598713
9	31432	336.2	1.1258466501839
9	31438	336.3	1.1371028203856
9	31444	336.4	1.1291806461137
9	31465	336.5	1.1334518472822
9	31471	336.6	1.1436692297935
9	31477	336.7	1.124561600545
9	31498	336.8	1.1450552520775
9	31504	336.9	1.1343429920926
9	31510	337	1.1228461389974
9	31516	337.1	1.133447619021
9	31522	337.2	1.1438540325796
9	31528	337.3	1.13039251755
9	31534	337.4	1.1332763072553
9	31555	337.5	1.1293793089442
9	31561	337.6	1.1365930335084
9	31567	337.7	1.1320176205076
9	31588	337.8	1.1373514708676
9	31594	337.9	1.1318758621837
9	31600	338	1.1327434046268
9	31606	338.1	1.1337457425989
9	31612	338.2	1.1430009281307
9	31618	338.3	1.1329026949951
9	31624	338.4	1.1308007671354
9	31645	338.5	1.1377422015568
9	31651	338.6	1.1300986348094
9	31657	338.7	1.133864715284
9	31678	338.8	1.1274101565131
9	31684	338.9	1.1380649371786
9	31690	339	1.1321357134193
9	31696	339.1	1.1315624155769
9	31702	339.2	1.1392336228635
9	31708	339.3	1.1394344057692
9	31714	339.4	1.1305985359592
9	31735	339.5	1.1274696904667
9	31741	339.6	1.1326583690999
9	31747	339.7	1.1405466121762
9	31768	339.8	1.1346785440094
9	31774	339.9	1.1262277263613
9	31780	340	1.1408232797404
9	31786	340.1	1.1302346836776
9	31821	340.2	1.1384528353424
9	31827	340.3	1.136277744309
9	31833	340.4	1.1290781510636
9	31854	340.5	1.1286943998064
9	31860	340.6	1.1374576020838
9	31866	340.7	1.138948300713
9	31887	340.8	1.1281728527994
9	31893	340.9	1.1327408026016
9	31899	341	1.1393355778086
9	31905	341.1	1.1310202286882
9	31911	341.2	1.1323432181665
9	31917	341.3	1.1403192047847
9	31923	341.4	1.1241673984161
9	31944	341.5	1.1400376105222
9	31950	341.6	1.1274156797105
9	31956	341.7	1.1435244598299
9	31977	341.8	1.1303870374329
9	31983	341.9	1.1378696522505
9	31989	342	1.1360021047487
9	31995	342.1	1.1312859686341
9	32001	342.2	1.1319608242073
9	32007	342.3	1.1335894591344
9	32013	342.4	1.1283133219623
9	32034	342.5	1.136808511433
9	32040	342.6	1.1363254940426
9	32046	342.7	1.1271157216163
9	32067	342.8	1.1382834652373
9	32073	342.9	1.1374663148269
9	32079	343	1.1294167981492
9	32085	343.1	1.1362258253272
9	32091	343.2	1.1291428441348
9	32097	343.3	1.133516885364
9	32103	343.4	1.1402836257792
9	32124	343.5	1.1315367021634
9	32130	343.6	1.137557775257
9	32136	343.7	1.1295349234792
9	32157	343.8	1.1293328188685
9	32163	343.9	1.1356223724273
9	32169	344	1.1395308257307
9	32175	344.1	1.1373451459706
9	32181	344.2	1.1233683657522
9	32187	344.3	1.1408431817095
9	32193	344.4	1.135142273099
9	32214	344.5	1.1337038775826
9	32220	344.6	1.1318236329102
9	32226	344.7	1.1281517222687
9	32247	344.8	1.1333020885541
9	32253	344.9	1.1422596855245
9	32259	345	1.1332995738148
9	32265	345.1	1.1319720067961
9	32300	345.2	1.1401952105737
9	32306	345.3	1.1320459836101
9	32312	345.4	1.1246783496969
9	32333	345.5	1.1450357126055
9	32339	345.6	1.1332224379614
9	32345	345.7	1.1301087128632
9	32366	345.8	1.1300878055451
9	32372	345.9	1.1395456734929
9	32378	346	1.1335395709647
9	32384	346.1	1.1339898765514
9	32390	346.2	1.1269953718354
9	32396	346.3	1.1417774712869
9	32402	346.4	1.1298529758928
9	32423	346.5	1.1284817105202
9	32429	346.6	1.1370031407608
9	32435	346.7	1.1386622591628
9	32456	346.8	1.1286701725288
9	32462	346.9	1.1314431513523
9	32468	347	1.1408924024175
9	32474	347.1	1.1298161856048
9	32480	347.2	1.1417014713797
9	32486	347.3	1.1240009804601
9	32492	347.4	1.1436949438766
9	32513	347.5	1.1306424035068
9	32519	347.6	1.1318481943834
9	32525	347.7	1.1373475824726
9	32546	347.8	1.1292306617863
9	32552	347.9	1.1349938678828
9	32558	348	1.1318520025514
9	32564	348.1	1.1383041846762
9	32570	348.2	1.1315809366364
9	32576	348.3	1.1305839282874
9	32582	348.4	1.1337575670103
9	32603	348.5	1.1349322062664
9	32609	348.6	1.1359235063014
9	32615	348.7	1.1322451454392
9	32636	348.8	1.1411431872295
9	32642	348.9	1.129315062906
9	32648	349	1.1291112730115
9	32654	349.1	1.136847121493
9	32660	349.2	1.129723976008
9	32666	349.3	1.1421499874523
9	32672	349.4	1.1360799894373
9	32693	349.5	1.1275186695742
9	32699	349.6	1.1405309176193
9	32705	349.7	1.1255549273328
9	32726	349.8	1.1403059943946
9	32732	349.9	1.130509686179
9	32738	350	1.1305077622321
9	32744	350.1	1.1340276958725
9	32779	350.2	1.1373763658063
9	32785	350.3	1.1279905415648
9	32791	350.4	1.1395962655643
9	32812	350.5	1.1366192055609
9	32818	350.6	1.1337023093328
9	32824	350.7	1.1285347812641
9	32845	350.8	1.1375818503609
9	32851	350.9	1.1341481257672
9	32857	351	1.1389192216353
9	32863	351.1	1.1305732852845
9	32869	351.2	1.1271420006537
9	32875	351.3	1.1344177617361
9	32881	351.4	1.1344474406938
9	32902	351.5	1.1428331008461
9	32908	351.6	1.1340719977574
9	32914	351.7	1.1305745159765
9	32935	351.8	1.1319569728745
9	32941	351.9	1.1285422847764
9	32947	352	1.1402246549354
9	32953	352.1	1.1351435445246
9	32959	352.2	1.1304888681432
9	32965	352.3	1.1296257343157
9	32971	352.4	1.1358648535829
9	32992	352.5	1.1323198434376
9	32998	352.6	1.1421412609447
9	33004	352.7	1.134750352899
9	33025	352.8	1.1288817759002
9	33031	352.9	1.1319731624861
9	33037	353	1.1306252155737
9	33043	353.1	1.1409304377241
9	33049	353.2	1.1342630233006
9	33055	353.3	1.1318633585935
9	33061	353.4	1.1317911179373
9	33082	353.5	1.1352748041374
9	33088	353.6	1.1319176887647
9	33094	353.7	1.1380461349039
9	33115	353.8	1.1280084798149
9	33121	353.9	1.1421978274499
9	33127	354	1.1323872627468
9	33133	354.1	1.1283269872202
9	33139	354.2	1.1392119199295
9	33145	354.3	1.1298558985628
9	33151	354.4	1.1385494360065
9	33172	354.5	1.1352499725289
9	33178	354.6	1.1326252821297
9	33184	354.7	1.1267639384386
9	33205	354.8	1.1389961992865
9	33211	354.9	1.1368472489078
9	33217	355	1.132826620314
9	33223	355.1	1.1379699409456
9	33258	355.2	1.1248294953548
9	33264	355.3	1.1403817686572
9	33270	355.4	1.1294108055255
9	33291	355.5	1.141018329409
9	33297	355.6	1.1241380601301
9	33303	355.7	1.1418087614217
9	33324	355.8	1.1363302841079
9	33330	355.9	1.1304357087461
9	33336	356	1.1263617054182
9	33342	356.1	1.1418904128964
9	33348	356.2	1.1310151313199
9	33354	356.3	1.1350851740827
9	33360	356.4	1.1353428029987
9	33381	356.5	1.1261961481328
