version 2
run General-0-20180806-00:25:23-26846
attr configname General
attr datetime 20180806-00:25:23
attr experiment General
attr inifile omnetpp.ini
attr iterationvars ""
attr iterationvarsf ""
attr measurement ""
attr network veinstest.TutorialScenario
attr processid 26846
attr repetition 0
attr replication #0
attr resultdir results
attr runnumber 0
attr seedset 0
param *.playgroundSizeX 1000m
param *.playgroundSizeY 1000m
param *.playgroundSizeZ 50m
param *.*.updateInterval 0.1s
param *.manager.host "\"localhost\""
param *.manager.port 9999
param *.manager.autoShutdown false
param *.manager.moduleType "\"org.car2x.veins.nodes.Car\""
param *.manager.moduleName "\"node\""
param *.manager.moduleDisplayString "\"\""
param *.manager.launchConfig "xmldoc(\"demo.launchd.xml\")"
param *.connectionManager.pMax 20mW
param *.connectionManager.sat -89dBm
param *.connectionManager.alpha 2.0
param *.connectionManager.carrierFrequency "5.890e9 Hz"
param *.connectionManager.sendDirect true
param *.connectionManager.maxInterfDist 2600m
param *.node[*].nicType "\"Nic80211p\""
param *.**.nic.mac1609_4.txPower 20mW
param *.**.nic.mac1609_4.bitrate 18Mbps
param *.**.nic.phy80211p.sensitivity -89dBm
param *.**.nic.phy80211p.useThermalNoise true
param *.**.nic.phy80211p.thermalNoise -110dBm
param *.**.nic.phy80211p.decider "xmldoc(\"config.xml\")"
param *.**.nic.phy80211p.analogueModels "xmldoc(\"config.xml\")"
param *.**.nic.phy80211p.usePropagationDelay true
param *.node[*].applType "\"veinstest.TutorialAppl\""
param *.node[*].appl.dataPriority 2
param *.node[*].veinsmobilityType "\"org.car2x.veins.modules.mobility.traci.TraCIMobility\""
param *.node[*].veinsmobility.x 0
param *.node[*].veinsmobility.y 0
param *.node[*].veinsmobility.z 0
param **.debug true
param **.coreDebug true

vector 0 TutorialScenario.node[0].veinsmobility posx ETV
vector 1 TutorialScenario.node[0].veinsmobility posy ETV
vector 2 TutorialScenario.node[1].veinsmobility posx ETV
vector 3 TutorialScenario.node[1].veinsmobility posy ETV
vector 4 TutorialScenario.node[0].veinsmobility speed ETV
vector 5 TutorialScenario.node[1].veinsmobility speed ETV
vector 6 TutorialScenario.node[0].veinsmobility acceleration ETV
vector 7 TutorialScenario.node[0].veinsmobility co2emission ETV
vector 8 TutorialScenario.node[1].veinsmobility acceleration ETV
vector 9 TutorialScenario.node[1].veinsmobility co2emission ETV
0	203	10.1	27.1
0	207	10.2	27.1
0	213	10.3	27.100911073308
0	219	10.4	27.102580128556
0	240	10.5	27.104905698165
0	246	10.6	27.10780862858
0	252	10.7	27.111346500138
0	273	10.8	27.115622730472
0	279	10.9	27.12066348164
0	285	11	27.126652844462
0	291	11.1	27.133356353219
0	297	11.2	27.14050790737
0	303	11.3	27.147666395918
0	309	11.4	27.155237501228
0	330	11.5	27.163303616563
0	336	11.6	27.171232733917
0	342	11.7	27.179709953782
0	363	11.8	27.18826574354
0	369	11.9	27.19729370749
0	375	12	27.20588593871
0	381	12.1	27.215276228363
0	387	12.2	27.224361387139
0	393	12.3	27.233736133856
0	399	12.4	27.242909514444
0	420	12.5	27.252302178811
0	426	12.6	27.261676523877
0	432	12.7	27.270969919966
0	453	12.8	27.280390286368
0	459	12.9	27.290004592928
0	465	13	27.299480976057
0	471	13.1	27.309798497777
0	477	13.2	27.320405618862
0	483	13.3	27.331733241431
0	489	13.4	27.342955486733
0	510	13.5	27.3548529065
0	516	13.6	27.367547499007
0	522	13.7	27.380755880007
0	543	13.8	27.394739748712
0	549	13.9	27.409390135339
0	555	14	27.424460788498
0	561	14.1	27.439177543951
0	567	14.2	27.454219374419
0	573	14.3	27.469341609695
0	579	14.4	27.484110322103
0	600	14.5	27.499730113984
0	606	14.6	27.514895192261
0	612	14.7	27.530080560491
0	633	14.8	27.546009564341
0	639	14.9	27.562401339937
0	645	15	27.578667086323
0	651	15.1	27.59502108671
0	686	15.2	27.611887516256
0	692	15.3	27.629696307663
0	698	15.4	27.64755368799
0	719	15.5	27.664972644414
0	725	15.6	27.682412415359
0	731	15.7	27.699899597988
0	752	15.8	27.716893831269
0	758	15.9	27.734015289052
0	764	16	27.751515193953
0	770	16.1	27.769303052596
0	776	16.2	27.78715564608
0	782	16.3	27.805501228138
0	788	16.4	27.823834681712
0	809	16.5	27.84269233267
0	815	16.6	27.861382465404
0	821	16.7	27.879648241562
0	842	16.8	27.897920227417
0	848	16.9	27.91717185581
0	854	17	27.936489215063
0	860	17.1	27.955796084869
0	866	17.2	27.974645037177
0	872	17.3	27.993176699282
0	878	17.4	28.011943924829
0	899	17.5	28.031627578337
0	905	17.6	28.051634493024
0	911	17.7	28.072611426203
0	932	17.8	28.093925792999
0	938	17.9	28.1147707797
0	944	18	28.136076599697
0	950	18.1	28.15766107939
0	956	18.2	28.179212567303
0	962	18.3	28.200443341377
0	968	18.4	28.221296762241
0	989	18.5	28.242824949906
0	995	18.6	28.264505354272
0	1001	18.7	28.285888104793
0	1022	18.8	28.307507401871
0	1028	18.9	28.328751614515
0	1034	19	28.349614090741
0	1040	19.1	28.371351898237
0	1046	19.2	28.393673127887
0	1052	19.3	28.416980322484
0	1058	19.4	28.440024003963
0	1079	19.5	28.463096924234
0	1085	19.6	28.485907765321
0	1091	19.7	28.509321511162
0	1112	19.8	28.533138525876
0	1118	19.9	28.557126308363
0	1124	20	28.581866680159
0	1130	20.1	28.607052339812
0	1165	20.2	28.63301833682
0	1171	20.3	28.659129906221
0	1177	20.4	28.685185869701
0	1198	20.5	28.711809118533
0	1204	20.6	28.738782435268
0	1210	20.7	28.765621591967
0	1231	20.8	28.792866601248
0	1237	20.9	28.819767552945
0	1243	21	28.846710123022
0	1249	21.1	28.873315361453
0	1255	21.2	28.899900516525
0	1261	21.3	28.926811874998
0	1267	21.4	28.953255377086
0	1288	21.5	28.980524576309
0	1294	21.6	29.007643239978
0	1300	21.7	29.035144173434
0	1321	21.8	29.062631948274
0	1327	21.9	29.090745028702
0	1333	22	29.119388281631
0	1339	22.1	29.147583410233
0	1345	22.2	29.175895841209
0	1351	22.3	29.204218769565
0	1357	22.4	29.232741888542
0	1378	22.5	29.261919207985
0	1384	22.6	29.29150422349
0	1390	22.7	29.321161026154
0	1411	22.8	29.351105527535
0	1417	22.9	29.381344830633
0	1423	23	29.411510021931
0	1429	23.1	29.442243226723
0	1435	23.2	29.473401238177
0	1441	23.3	29.504435494876
0	1447	23.4	29.535152073288
0	1468	23.5	29.566714356661
0	1474	23.6	29.599138079204
0	1480	23.7	29.63203073175
0	1501	23.8	29.665095659913
0	1507	23.9	29.699110150436
0	1513	24	29.73267119831
0	1519	24.1	29.766750750318
0	1525	24.2	29.801498408302
0	1531	24.3	29.837034170432
0	1537	24.4	29.873424042672
0	1558	24.5	29.909337851558
0	1564	24.6	29.945861149052
0	1570	24.7	29.98257891277
0	1591	24.8	30.019624787228
0	1597	24.9	30.057521308058
0	1603	25	30.095889361397
0	1609	25.1	30.134553540979
0	1644	25.2	30.172956010366
0	1650	25.3	30.211001508137
0	1656	25.4	30.249990666831
0	1677	25.5	30.28921735235
0	1683	25.6	30.329193766591
0	1689	25.7	30.369001604306
0	1710	25.8	30.408512042081
0	1716	25.9	30.44840538477
0	1722	26	30.489088768583
0	1728	26.1	30.530722318818
0	1734	26.2	30.571882006617
0	1740	26.3	30.613481758287
0	1746	26.4	30.655451396905
0	1767	26.5	30.698345153355
0	1773	26.6	30.741690665654
0	1779	26.7	30.786011236
0	1800	26.8	30.830985692833
0	1806	26.9	30.875812782119
0	1812	27	30.920223686125
0	1818	27.1	30.964509591258
0	1824	27.2	31.009286390668
0	1830	27.3	31.054328866664
0	1836	27.4	31.099862864986
0	1857	27.5	31.146127627905
0	1863	27.6	31.193135910936
0	1869	27.7	31.240449017502
0	1890	27.8	31.287450264626
0	1896	27.9	31.334035332122
0	1902	28	31.380708020318
0	1908	28.1	31.427485725394
0	1914	28.2	31.474087964098
0	1920	28.3	31.520940163361
0	1926	28.4	31.568716807536
0	1947	28.5	31.616444804595
0	1953	28.6	31.663684207061
0	1959	28.7	31.711522715725
0	1980	28.8	31.759342588462
0	1986	28.9	31.806866039036
0	1992	29	31.854263223239
0	1998	29.1	31.901213672793
0	2004	29.2	31.948332758693
0	2010	29.3	31.996133258841
0	2016	29.4	32.044600094153
0	2037	29.5	32.093738805413
0	2043	29.6	32.143023156376
0	2049	29.7	32.192629343781
0	2070	29.8	32.241780176159
0	2076	29.9	32.290910191496
0	2082	30	32.340912263482
0	2088	30.1	32.391829707967
0	2123	30.2	32.443015395892
0	2129	30.3	32.493879576979
0	2135	30.4	32.544279151481
0	2156	30.5	32.594752239104
0	2162	30.6	32.645411578562
0	2168	30.7	32.695788997645
0	2189	30.8	32.746050664915
0	2195	30.9	32.796594437695
0	2201	31	32.84712258811
0	2207	31.1	32.897740170934
0	2213	31.2	32.948285708359
0	2219	31.3	32.999127000003
0	2225	31.4	33.050284269711
0	2246	31.5	33.101081912286
0	2252	31.6	33.15267372423
0	2258	31.7	33.204921707189
0	2279	31.8	33.256847312043
0	2285	31.9	33.30841627943
0	2291	32	33.360016569918
0	2297	32.1	33.412129835947
0	2303	32.2	33.464463535187
0	2309	32.3	33.517797151402
0	2315	32.4	33.571662977287
0	2336	32.5	33.625890625865
0	2342	32.6	33.679790267947
0	2348	32.7	33.733670090846
0	2369	32.8	33.787865719087
0	2375	32.9	33.842336234402
0	2381	33	33.896623640584
0	2387	33.1	33.951566884023
0	2393	33.2	34.006189681055
0	2399	33.3	34.061341939491
0	2405	33.4	34.116058021643
0	2426	33.5	34.171066476432
0	2432	33.6	34.226007555488
0	2438	33.7	34.281718093089
0	2459	33.8	34.337332967418
0	2465	33.9	34.392978445096
0	2471	34	34.449301601669
0	2477	34.1	34.506345070913
0	2483	34.2	34.56317716976
0	2489	34.3	34.619888649401
0	2495	34.4	34.676587858025
0	2516	34.5	34.73387172602
0	2522	34.6	34.791893230706
0	2528	34.7	34.849858024
0	2549	34.8	34.908128092
0	2555	34.9	34.966137517196
0	2561	35	35.02483964375
0	2567	35.1	35.084294331997
0	2602	35.2	35.144561770652
0	2608	35.3	35.204746088317
0	2614	35.4	35.265884726532
0	2635	35.5	35.326902873391
0	2641	35.6	35.388782126013
0	2647	35.7	35.451335202892
0	2668	35.8	35.513764398147
0	2674	35.9	35.576096052764
0	2680	36	35.639359285427
0	2686	36.1	35.703308782548
0	2692	36.2	35.767827907101
0	2698	36.3	35.832331136694
0	2704	36.4	35.897739808848
0	2725	36.5	35.963315007146
0	2731	36.6	36.029876345339
0	2737	36.7	36.09618812639
0	2758	36.8	36.16202341329
0	2764	36.9	36.227803458012
0	2770	37	36.294311055925
0	2776	37.1	36.36105006364
0	2782	37.2	36.42791840066
0	2788	37.3	36.494605424449
0	2794	37.4	36.561382735045
0	2815	37.5	36.628832441369
0	2821	37.6	36.696599394467
0	2827	37.7	36.764048042957
0	2848	37.8	36.831758289087
0	2854	37.9	36.899395193488
0	2860	38	36.967302858552
0	2866	38.1	37.035147701393
0	2872	38.2	37.10324533389
0	2878	38.3	37.171076141271
0	2884	38.4	37.239615435323
0	2905	38.5	37.307994740353
0	2911	38.6	37.37591265738
0	2917	38.7	37.443537109737
0	2938	38.8	37.510990922119
0	2944	38.9	37.577967186081
0	2950	39	37.644813095637
0	2956	39.1	37.712652933033
0	2962	39.2	37.781088551276
0	2968	39.3	37.849908431306
0	2974	39.4	37.919085975596
0	2995	39.5	37.988816757153
0	3001	39.6	38.058945840197
0	3007	39.7	38.129893937747
0	3028	39.8	38.200370985787
0	3034	39.9	38.271238853096
0	3040	40	38.342252904269
0	3046	40.1	38.413751547194
0	3081	40.2	38.485066880957
0	3087	40.3	38.556765156098
0	3093	40.4	38.628924524113
0	3114	40.5	38.701484643752
0	3120	40.6	38.77459201708
0	3126	40.7	38.847536560735
0	3147	40.8	38.920091784991
0	3153	40.9	38.993159043782
0	3159	41	39.065796996568
0	3165	41.1	39.139414026755
0	3171	41.2	39.213230858429
0	3177	41.3	39.287590817057
0	3183	41.4	39.361626485687
0	3204	41.5	39.436286220238
0	3210	41.6	39.510929837052
0	3216	41.7	39.585357817724
0	3237	41.8	39.660137576324
0	3243	41.9	39.734789133147
0	3249	42	39.809196286607
0	3255	42.1	39.884034889408
0	3261	42.2	39.959728667787
0	3267	42.3	40.036038236792
0	3273	42.4	40.112459903051
0	3294	42.5	40.189166853505
0	3300	42.6	40.266141902101
0	3306	42.7	40.343429178867
0	3327	42.8	40.420929566709
0	3333	42.9	40.498766931571
0	3339	43	40.576325344049
0	3345	43.1	40.654233598062
0	3351	43.2	40.731901546523
0	3357	43.3	40.809805481886
0	3363	43.4	40.888579851778
0	3384	43.5	40.967364161878
0	3390	43.6	41.046838580069
0	3396	43.7	41.126042085284
0	3417	43.8	41.2052235518
0	3423	43.9	41.285137467285
0	3429	44	41.365946594245
0	3435	44.1	41.447741188943
0	3441	44.2	41.529197709149
0	3447	44.3	41.611454031539
0	3453	44.4	41.693541565973
0	3474	44.5	41.775241355262
0	3480	44.6	41.856868376428
0	3486	44.7	41.938759169668
0	3507	44.8	42.020945715451
0	3513	44.9	42.102808197303
0	3519	45	42.184938064062
0	3525	45.1	42.267446079605
0	3560	45.2	42.350692927224
0	3566	45.3	42.434226840676
0	3572	45.4	42.517585282177
0	3593	45.5	42.601109079539
0	3599	45.6	42.685393076281
0	3605	45.7	42.770461328973
0	3626	45.8	42.855555387117
0	3632	45.9	42.940840609866
0	3638	46	43.026637305465
0	3644	46.1	43.113213480227
0	3650	46.2	43.20054984989
0	3656	46.3	43.288692101045
0	3662	46.4	43.37696596862
0	3683	46.5	43.466101445939
0	3689	46.6	43.55487110618
0	3695	46.7	43.644516308804
0	3716	46.8	43.73396094374
0	3722	46.9	43.823089882224
0	3728	47	43.913078631525
0	3734	47.1	44.003427922009
0	3740	47.2	44.09406738149
0	3746	47.3	44.184836545309
0	3752	47.4	44.27553134287
0	3773	47.5	44.367185536951
0	3779	47.6	44.458742635019
0	3785	47.7	44.550149287829
0	3806	47.8	44.64254129099
0	3812	47.9	44.735470864906
0	3818	48	44.82905114061
0	3824	48.1	44.922876275175
0	3830	48.2	45.016270827668
0	3836	48.3	45.109828663211
0	3842	48.4	45.204240295724
0	3863	48.5	45.298719410502
0	3869	48.6	45.392903991354
0	3875	48.7	45.487852123799
0	3896	48.8	45.582311611962
0	3902	48.9	45.677643598521
0	3908	49	45.773833898206
0	3914	49.1	45.87007378606
0	3920	49.2	45.965889727694
0	3926	49.3	46.061300549613
0	3932	49.4	46.157040304082
0	3953	49.5	46.252688514046
0	3959	49.6	46.348223367044
0	3965	49.7	46.444297740962
0	3986	49.8	46.541192457858
0	3992	49.9	46.638421356735
0	3998	50	46.736062594127
0	4004	50.1	46.833906057746
0	4039	50.2	46.931481484839
0	4045	50.3	47.029252500125
0	4051	50.4	47.127003110178
0	4072	50.5	47.224839953863
0	4078	50.6	47.323529080544
0	4084	50.7	47.423080165849
0	4105	50.8	47.523547302409
0	4111	50.9	47.622014438969
0	4117	51	47.718481575529
0	4123	51.1	47.812948712089
0	4129	51.2	47.905415848649
0	4135	51.3	47.995882985208
0	4141	51.4	48.084350121768
0	4162	51.5	48.170817258328
0	4168	51.6	48.255284394888
0	4174	51.7	48.337751531448
0	4195	51.8	48.418218668008
0	4201	51.9	48.496685804568
0	4207	52	48.573152941128
0	4213	52.1	48.647620077687
0	4219	52.2	48.720087214247
0	4225	52.3	48.790554350807
0	4231	52.4	48.859021487367
0	4252	52.5	48.925488623927
0	4258	52.6	48.989955760487
0	4264	52.7	49.052422897047
0	4285	52.8	49.112890033606
0	4291	52.9	49.171357170166
0	4297	53	49.227824306726
0	4303	53.1	49.282291443286
0	4309	53.2	49.334758579846
0	4315	53.3	49.385225716406
0	4321	53.4	49.434654622539
0	4342	53.5	49.48370372611
0	4348	53.6	49.532313407472
0	4354	53.7	49.580642178662
0	4375	53.8	49.629224432883
0	4381	53.9	49.67816493553
0	4387	54	49.726871599007
0	4393	54.1	49.775470922613
0	4399	54.2	49.82439953046
0	4405	54.3	49.872874783754
0	4411	54.4	49.921805295169
0	4432	54.5	49.971139506337
0	4438	54.6	50.02003148235
0	4444	54.7	50.069249833222
0	4465	54.8	50.117843906676
0	4471	54.9	50.167052129905
0	4477	55	50.216479490205
0	4483	55.1	50.265433777789
0	4518	55.2	50.314042460214
0	4524	55.3	50.363469552823
0	4530	55.4	50.413107234292
0	4551	55.5	50.462764838871
0	4557	55.6	50.512030574888
0	4563	55.7	50.560693290864
0	4584	55.8	50.609818845628
0	4590	55.9	50.659240989493
0	4596	56	50.707865898971
0	4602	56.1	50.757320083491
0	4608	56.2	50.806373395173
0	4614	56.3	50.856174172673
0	4620	56.4	50.905612805799
0	4641	56.5	50.955126198507
0	4647	56.6	51.004106025199
0	4653	56.7	51.05289254977
0	4674	56.8	51.101923173928
0	4680	56.9	51.151478810347
0	4686	57	51.200149866949
0	4692	57.1	51.249293117705
0	4698	57.2	51.298185532199
0	4704	57.3	51.347244904802
0	4710	57.4	51.396942628233
0	4731	57.5	51.446119849589
0	4737	57.6	51.495340385351
0	4743	57.7	51.544817211362
0	4764	57.8	51.594780281427
0	4770	57.9	51.644557037482
0	4776	58	51.694359259429
0	4782	58.1	51.743297383237
0	4788	58.2	51.792171898865
0	4794	58.3	51.841128791867
0	4800	58.4	51.89007782434
0	4821	58.5	51.93935558301
0	4827	58.6	51.988311467257
0	4833	58.7	52.03769986229
0	4854	58.8	52.087549814212
0	4860	58.9	52.136109429038
0	4866	59	52.185560392194
0	4872	59.1	52.235531441288
0	4878	59.2	52.284062081409
0	4884	59.3	52.333370004404
0	4890	59.4	52.382981950929
0	4911	59.5	52.432658657707
0	4917	59.6	52.481788789107
0	4923	59.7	52.530325161573
0	4944	59.8	52.579452020685
0	4950	59.9	52.627996908071
0	4956	60	52.677503549428
0	4962	60.1	52.726171483869
0	4997	60.2	52.774776505048
0	5003	60.3	52.823964865717
0	5009	60.4	52.872622570925
0	5030	60.5	52.922240492306
0	5036	60.6	52.971302037379
0	5042	60.7	53.020807723319
0	5063	60.8	53.069357041632
0	5069	60.9	53.118653495338
0	5075	61	53.167301270852
0	5081	61.1	53.216454142886
0	5087	61.2	53.265120292898
0	5093	61.3	53.314017765419
0	5099	61.4	53.363149294587
0	5120	61.5	53.41256905386
0	5126	61.6	53.461773920463
0	5132	61.7	53.510356859245
0	5153	61.8	53.558600504658
0	5159	61.9	53.606828478471
0	5165	62	53.655097911208
0	5171	62.1	53.703544801939
0	5177	62.2	53.752582667998
0	5183	62.3	53.802360265037
0	5189	62.4	53.85107581057
0	5210	62.5	53.899838770911
0	5216	62.6	53.949152266008
0	5222	62.7	53.998461936446
0	5243	62.8	54.048425145346
0	5249	62.9	54.097588047698
0	5255	63	54.147046320423
0	5261	63.1	54.196292256106
0	5267	63.2	54.246061814794
0	5273	63.3	54.29542355334
0	5279	63.4	54.344064295578
0	5300	63.5	54.393692270435
0	5306	63.6	54.442238974282
0	5312	63.7	54.490749337539
0	5333	63.8	54.540110576206
0	5339	63.9	54.589675912391
0	5345	64	54.63886730207
0	5351	64.1	54.687781080298
0	5357	64.2	54.737111557375
0	5363	64.3	54.786770931419
0	5369	64.4	54.836088641605
0	5390	64.5	54.884630517847
0	5396	64.6	54.932921666739
0	5402	64.7	54.980840629635
0	5423	64.8	55.028758665271
0	5429	64.9	55.077015701767
0	5435	65	55.125245100271
0	5441	65.1	55.173501601311
0	5476	65.2	55.222714452338
0	5482	65.3	55.271335155183
0	5488	65.4	55.320142172518
0	5509	65.5	55.368462477372
0	5515	65.6	55.417208127894
0	5521	65.7	55.465743774423
0	5542	65.8	55.514587910709
0	5548	65.9	55.563191810668
0	5554	66	55.61198703328
0	5560	66.1	55.660451358638
0	5566	66.2	55.708595523702
0	5572	66.3	55.757247233801
0	5578	66.4	55.806292306495
0	5599	66.5	55.855475335463
0	5605	66.6	55.904542796119
0	5611	66.7	55.953973762007
0	5632	66.8	56.003160567822
0	5638	66.9	56.052979188781
0	5644	67	56.101958142927
0	5650	67.1	56.151506418187
0	5656	67.2	56.201441953578
0	5662	67.3	56.251267806062
0	5668	67.4	56.301108161943
0	5689	67.5	56.350633430064
0	5695	67.6	56.400263627876
0	5701	67.7	56.449419453189
0	5722	67.8	56.49805992184
0	5728	67.9	56.546830230128
0	5734	68	56.595703633325
0	5740	68.1	56.645219971242
0	5746	68.2	56.69434864033
0	5752	68.3	56.744129835098
0	5758	68.4	56.79362638863
0	5779	68.5	56.842688096664
0	5785	68.6	56.892146138148
0	5791	68.7	56.940779647162
0	5812	68.8	56.989095417231
0	5818	68.9	57.03775995393
0	5824	69	57.086648072477
0	5830	69.1	57.135824189046
0	5836	69.2	57.18554764515
0	5842	69.3	57.234895504193
0	5848	69.4	57.284614176292
0	5869	69.5	57.333541364544
0	5875	69.6	57.382684043206
0	5881	69.7	57.432203195224
0	5902	69.8	57.482198545909
0	5908	69.9	57.531302591503
0	5914	70	57.580328974001
0	5920	70.1	57.630321189572
0	5955	70.2	57.678865856866
0	5961	70.3	57.727414725061
0	5967	70.4	57.776523876649
0	5988	70.5	57.826223330165
0	5994	70.6	57.874834776942
0	6000	70.7	57.923982346788
0	6021	70.8	57.973377519731
0	6027	70.9	58.022427926717
0	6033	71	58.071091947501
0	6039	71.1	58.120107058751
0	6045	71.2	58.168714730689
0	6051	71.3	58.217434281626
0	6057	71.4	58.266506155174
0	6078	71.5	58.315616984767
0	6084	71.6	58.365085225677
0	6090	71.7	58.414099696013
0	6111	71.8	58.463121232581
0	6117	71.9	58.511888654733
0	6123	72	58.561051926749
0	6129	72.1	58.610995579177
0	6135	72.2	58.659518631736
0	6141	72.3	58.708369470049
0	6147	72.4	58.756813855529
0	6168	72.5	58.805250179423
0	6174	72.6	58.854286458004
0	6180	72.7	58.903440361473
0	6201	72.8	58.952004962017
0	6207	72.9	59.001399333686
0	6213	73	59.050990989639
0	6219	73.1	59.100867903021
0	6225	73.2	59.149719997137
0	6231	73.3	59.19953955817
0	6237	73.4	59.249333681143
0	6258	73.5	59.298942738143
0	6264	73.6	59.347636114288
0	6270	73.7	59.397060375331
0	6291	73.8	59.446410457228
0	6297	73.9	59.495922780361
0	6303	74	59.545047674082
0	6309	74.1	59.593642971937
0	6315	74.2	59.641827097305
0	6321	74.3	59.690932460429
0	6327	74.4	59.740038143751
0	6348	74.5	59.788700442306
0	6354	74.6	59.837191344158
0	6360	74.7	59.886364945155
0	6381	74.8	59.935217453488
0	6387	74.9	59.984786367838
0	6393	75	60.033438228464
0	6399	75.1	60.083076692193
0	6434	75.2	60.13294134272
0	6440	75.3	60.182012568525
0	6446	75.4	60.231438908377
0	6467	75.5	60.281294064053
0	6473	75.6	60.329816664095
0	6479	75.7	60.377994392248
0	6500	75.8	60.426765450311
0	6506	75.9	60.475826723298
0	6512	76	60.525107092487
0	6518	76.1	60.574344506908
0	6524	76.2	60.622893617949
0	6530	76.3	60.672292791222
0	6536	76.4	60.722233315533
0	6557	76.5	60.771507755842
0	6563	76.6	60.820820367328
0	6569	76.7	60.87046747306
0	6590	76.8	60.920379167633
0	6596	76.9	60.970193401005
0	6602	77	61.018908268134
0	6608	77.1	61.068023634204
0	6614	77.2	61.117451538477
0	6620	77.3	61.167418578023
0	6626	77.4	61.216856448969
0	6647	77.5	61.265864038037
0	6653	77.6	61.314926000739
0	6659	77.7	61.363555013916
0	6680	77.8	61.412176335641
0	6686	77.9	61.461311533324
0	6692	78	61.510837203344
0	6698	78.1	61.559587229629
0	6704	78.2	61.608173551087
0	6710	78.3	61.657338143095
0	6716	78.4	61.706267252295
0	6737	78.5	61.755353995572
0	6743	78.6	61.804754505542
0	6749	78.7	61.853958215352
0	6770	78.8	61.903830365761
0	6776	78.9	61.952831849166
0	6782	79	62.002787396949
0	6788	79.1	62.051453465973
0	6794	79.2	62.100096356567
0	6800	79.3	62.148402275634
0	6806	79.4	62.197706383342
0	6827	79.5	62.2463005551
0	6833	79.6	62.294457265821
0	6839	79.7	62.342419497422
0	6860	79.8	62.389893618253
0	6866	79.9	62.437834901277
0	6872	80	62.485503674074
0	6878	80.1	62.533016435129
0	6913	80.2	62.580448404905
0	6919	80.3	62.62793025244
0	6925	80.4	62.675951035797
0	6946	80.5	62.724165900611
0	6952	80.6	62.772968902849
0	6958	80.7	62.822758870209
0	6979	80.8	62.872721453115
0	6985	80.9	62.922505023967
0	6991	81	62.971734384365
0	6997	81.1	63.021400397466
0	7003	81.2	63.070846162925
0	7009	81.3	63.120763502006
0	7015	81.4	63.169396706266
0	7036	81.5	63.217702482682
0	7042	81.6	63.265662343483
0	7048	81.7	63.314123917951
0	7069	81.8	63.362516102138
0	7075	81.9	63.411267871206
0	7081	82	63.460567101573
0	7087	82.1	63.510461485327
0	7093	82.2	63.559828718557
0	7099	82.3	63.609246239154
0	7105	82.4	63.65900564884
0	7126	82.5	63.708480337951
0	7132	82.6	63.758336908126
0	7138	82.7	63.807030254332
0	7159	82.8	63.855722210578
0	7165	82.9	63.905125089867
0	7171	83	63.953747951944
0	7177	83.1	64.002501292687
0	7183	83.2	64.051570785772
0	7189	83.3	64.100607258147
0	7195	83.4	64.150226220304
0	7216	83.5	64.199399601582
0	7222	83.6	64.24920174671
0	7228	83.7	64.298900972695
0	7249	83.8	64.348129890984
0	7255	83.9	64.397983650906
0	7261	84	64.446705870347
0	7267	84.1	64.495834774046
0	7273	84.2	64.545485157299
0	7279	84.3	64.594607009191
0	7285	84.4	64.643486754627
0	7306	84.5	64.692453017139
0	7312	84.6	64.741550762845
0	7318	84.7	64.791295613384
0	7339	84.8	64.840266070317
0	7345	84.9	64.888771324544
0	7351	85	64.937363688814
0	7357	85.1	64.986463484666
0	7392	85.2	65.03525944646
0	7398	85.3	65.083800862209
0	7404	85.4	65.132719358042
0	7425	85.5	65.182014441482
0	7431	85.6	65.230609515817
0	7437	85.7	65.279121314124
0	7458	85.8	65.328583760425
0	7464	85.9	65.377944841499
0	7470	86	65.427803999794
0	7476	86.1	65.476336178473
0	7482	86.2	65.525005538451
0	7488	86.3	65.573709381301
0	7494	86.4	65.622866530125
0	7515	86.5	65.671864957788
0	7521	86.6	65.72100562
0	7527	86.7	65.769843594788
0	7548	86.8	65.818331416386
0	7554	86.9	65.867212778189
0	7560	87	65.915751122321
0	7566	87.1	65.965191842733
0	7572	87.2	66.014163626659
0	7578	87.3	66.063788805506
0	7584	87.4	66.112980502745
0	7605	87.5	66.161820950277
0	7611	87.6	66.210541521378
0	7617	87.7	66.259179947317
0	7638	87.8	66.30809403582
0	7644	87.9	66.357717090104
0	7650	88	66.407408740626
0	7656	88.1	66.456605538243
0	7662	88.2	66.505948816864
0	7668	88.3	66.554486332147
0	7674	88.4	66.603572611544
0	7695	88.5	66.653454156688
0	7701	88.6	66.702363839741
0	7707	88.7	66.750810386582
0	7728	88.8	66.799083799361
0	7734	88.9	66.847986644313
0	7740	89	66.897834647782
0	7746	89.1	66.947224264881
0	7752	89.2	66.995907638701
0	7758	89.3	67.044943021841
0	7764	89.4	67.094516892644
0	7785	89.5	67.143113939808
0	7791	89.6	67.191552588607
0	7797	89.7	67.240074757644
0	7818	89.8	67.289592911077
0	7824	89.9	67.33819565352
0	7830	90	67.386787639943
0	7836	90.1	67.436042925962
0	7871	90.2	67.486005796344
0	7877	90.3	67.535994593868
0	7883	90.4	67.584603490039
0	7904	90.5	67.633172656999
0	7910	90.6	67.681684102651
0	7916	90.7	67.730301450821
0	7937	90.8	67.779112945513
0	7943	90.9	67.828241072366
0	7949	91	67.877340782552
0	7955	91.1	67.926359659661
0	7961	91.2	67.975800099999
0	7967	91.3	68.024797749036
0	7973	91.4	68.074110071105
0	7994	91.5	68.1239824709
0	8000	91.6	68.173632710267
0	8006	91.7	68.223510652684
0	8027	91.8	68.273027626674
0	8033	91.9	68.322110635542
0	8039	92	68.371559196281
0	8045	92.1	68.420469855501
0	8051	92.2	68.469363425603
0	8057	92.3	68.519039958986
0	8063	92.4	68.568787895208
0	8084	92.5	68.61869124203
0	8090	92.6	68.66829474289
0	8096	92.7	68.717772207765
0	8117	92.8	68.767639835406
0	8123	92.9	68.816736491642
0	8129	93	68.865664928038
0	8135	93.1	68.915357531285
0	8141	93.2	68.964844325019
0	8147	93.3	69.01375345015
0	8153	93.4	69.062667598404
0	8174	93.5	69.111300056618
0	8180	93.6	69.160100609753
0	8186	93.7	69.209862528199
0	8207	93.8	69.25977654727
0	8213	93.9	69.30965645563
0	8219	94	69.358880749714
0	8225	94.1	69.407748090446
0	8231	94.2	69.457567021244
0	8237	94.3	69.506881989853
0	8243	94.4	69.555644793291
0	8264	94.5	69.604404687963
0	8270	94.6	69.65334570624
0	8276	94.7	69.70240350696
0	8297	94.8	69.751058786969
0	8303	94.9	69.799851450255
0	8309	95	69.849011384709
0	8315	95.1	69.897956957143
0	8350	95.2	69.947366718446
0	8356	95.3	69.99590735083
0	8362	95.4	70.044139529447
0	8383	95.5	70.093136727833
0	8389	95.6	70.142107737626
0	8395	95.7	70.192027641273
0	8416	95.8	70.240699830359
0	8422	95.9	70.28910473907
0	8428	96	70.337744455777
0	8434	96.1	70.387192639516
0	8440	96.2	70.436260429971
0	8446	96.3	70.485901424466
0	8452	96.4	70.534955117868
0	8473	96.5	70.583914499297
0	8479	96.6	70.633714498357
0	8485	96.7	70.682999079522
0	8506	96.8	70.73212068945
0	8512	96.9	70.781740250888
0	8518	97	70.831438735463
0	8524	97.1	70.880481951834
0	8530	97.2	70.929340836488
0	8536	97.3	70.978661055156
0	8542	97.4	71.027597708824
0	8563	97.5	71.076653299525
0	8569	97.6	71.125438909456
0	8575	97.7	71.174918411298
0	8596	97.8	71.223723816148
0	8602	97.9	71.27312960914
0	8608	98	71.322682212508
0	8614	98.1	71.371214954249
0	8620	98.2	71.420678675626
0	8626	98.3	71.470394045198
0	8632	98.4	71.519612733006
0	8653	98.5	71.569048741608
0	8659	98.6	71.618685592051
0	8665	98.7	71.667658762946
0	8686	98.8	71.716628078394
0	8692	98.9	71.765151782358
0	8698	99	71.81335758576
0	8704	99.1	71.861067234974
0	8710	99.2	71.909232552191
0	8716	99.3	71.958330017677
0	8722	99.4	72.007842072468
0	8743	99.5	72.057096700347
0	8749	99.6	72.106838406782
0	8755	99.7	72.156710792665
0	8776	99.8	72.20603169938
0	8782	99.9	72.25463270108
0	8788	100	72.303088955271
0	8794	100.1	72.352077980358
0	8829	100.2	72.400734082204
0	8835	100.3	72.449344272613
0	8841	100.4	72.498259446991
0	8862	100.5	72.547777692069
0	8868	100.6	72.59691439124
0	8874	100.7	72.646622039743
0	8895	100.8	72.695510192242
0	8901	100.9	72.743992952921
0	8907	101	72.792486811798
0	8913	101.1	72.840893179533
0	8919	101.2	72.890052814653
0	8925	101.3	72.9389304787
0	8931	101.4	72.988062107497
0	8952	101.5	73.037931033455
0	8958	101.6	73.08735136235
0	8964	101.7	73.136257190178
0	8985	101.8	73.185295702485
0	8991	101.9	73.23483612851
0	8997	102	73.283353005008
0	9003	102.1	73.33200883374
0	9009	102.2	73.38024723869
0	9015	102.3	73.428645982298
0	9021	102.4	73.477197726104
0	9042	102.5	73.526672714259
0	9048	102.6	73.576516596114
0	9054	102.7	73.625594939023
0	9075	102.8	73.674497488452
0	9081	102.9	73.724033989234
0	9087	103	73.772588025654
0	9093	103.1	73.821030204958
0	9099	103.2	73.870115367351
0	9105	103.3	73.919148736922
0	9111	103.4	73.968639102349
0	9132	103.5	74.01754788123
0	9138	103.6	74.066579771251
0	9144	103.7	74.115444790676
0	9165	103.8	74.164932614418
0	9171	103.9	74.213534171449
0	9177	104	74.26164622651
0	9183	104.1	74.310511482498
0	9189	104.2	74.359607380497
0	9195	104.3	74.408312166162
0	9201	104.4	74.457495404845
0	9222	104.5	74.507131448855
0	9228	104.6	74.556034851036
0	9234	104.7	74.604471976485
0	9255	104.8	74.653153480213
0	9261	104.9	74.702246338091
0	9267	105	74.751658438799
0	9273	105.1	74.800466679119
0	9308	105.2	74.849215827929
0	9314	105.3	74.898486600759
0	9320	105.4	74.947024717775
0	9341	105.5	74.99522546406
0	9347	105.6	75.043374818242
0	9353	105.7	75.091863006635
0	9374	105.8	75.141040251063
0	9380	105.9	75.190042804014
0	9386	106	75.238911968919
0	9392	106.1	75.287875017504
0	9398	106.2	75.33709464092
0	9404	106.3	75.386917578574
0	9410	106.4	75.435740482721
0	9431	106.5	75.484825999725
0	9437	106.6	75.533544827401
0	9443	106.7	75.583061427109
0	9464	106.8	75.63161379303
0	9470	106.9	75.680429357387
0	9476	107	75.730136396189
0	9482	107.1	75.779716225573
0	9488	107.2	75.82836235526
0	9494	107.3	75.877507458016
0	9500	107.4	75.926052340867
0	9521	107.5	75.974931041603
0	9527	107.6	76.024259172977
0	9533	107.7	76.073074518553
0	9554	107.8	76.122189185024
0	9560	107.9	76.172075835184
0	9566	108	76.220832573825
0	9572	108.1	76.269403619032
0	9578	108.2	76.318202174875
0	9584	108.3	76.367986205741
0	9590	108.4	76.417781670237
0	9611	108.5	76.466713684373
0	9617	108.6	76.515759412185
0	9623	108.7	76.56470934543
0	9644	108.8	76.614117876974
0	9650	108.9	76.663173811912
0	9656	109	76.712521571956
0	9662	109.1	76.761900870428
0	9668	109.2	76.811278321502
0	9674	109.3	76.86123023807
0	9680	109.4	76.91113874556
0	9701	109.5	76.959864766818
0	9707	109.6	77.008547499765
0	9713	109.7	77.057884615152
0	9734	109.8	77.107707425096
0	9740	109.9	77.157646359711
0	9746	110	77.206926798975
0	9752	110.1	77.25604484829
0	9787	110.2	77.304697914385
0	9793	110.3	77.352970572839
0	9799	110.4	77.401693864808
0	9820	110.5	77.450020897602
0	9826	110.6	77.498529261385
0	9832	110.7	77.547176487326
0	9853	110.8	77.59655575981
0	9859	110.9	77.646381967623
0	9865	111	77.696015403513
0	9871	111.1	77.745828970172
0	9877	111.2	77.795494032669
0	9883	111.3	77.844684312598
0	9889	111.4	77.893381930115
0	9910	111.5	77.941887065957
0	9916	111.6	77.991343667449
0	9922	111.7	78.040295831334
0	9943	111.8	78.090177807538
0	9949	111.9	78.138680769312
0	9955	112	78.187007559562
0	9961	112.1	78.23598727714
0	9967	112.2	78.285231829315
0	9973	112.3	78.334115677474
0	9979	112.4	78.382739815845
0	10000	112.5	78.432020668134
0	10006	112.6	78.481819744797
0	10012	112.7	78.530423129912
0	10033	112.8	78.57902037254
0	10039	112.9	78.627303187827
0	10045	113	78.676237428391
0	10051	113.1	78.725978624034
0	10057	113.2	78.77545313625
0	10063	113.3	78.825074086345
0	10069	113.4	78.874964955228
0	10090	113.5	78.923998236579
0	10096	113.6	78.973621418637
0	10102	113.7	79.022946081928
0	10123	113.8	79.072513631097
0	10129	113.9	79.121131842781
0	10135	114	79.170074740717
0	10141	114.1	79.218697853625
0	10147	114.2	79.268254941991
0	10153	114.3	79.31745123911
0	10159	114.4	79.366772143365
0	10180	114.5	79.416282966828
0	10186	114.6	79.46583268264
0	10192	114.7	79.5154325004
0	10213	114.8	79.565133206104
0	10219	114.9	79.614394257459
0	10225	115	79.663876550799
0	10231	115.1	79.713380650011
0	10266	115.2	79.763281339246
0	10272	115.3	79.81326054167
0	10278	115.4	79.861893056535
0	10299	115.5	79.910904933754
0	10305	115.6	79.959889366954
0	10311	115.7	80.009195201708
0	10332	115.8	80.058894245198
0	10338	115.9	80.107500032423
0	10344	116	80.156921826674
0	10350	116.1	80.20619976383
0	10356	116.2	80.256062171683
0	10362	116.3	80.30571825754
0	10368	116.4	80.354690135136
0	10389	116.5	80.40387239392
0	10395	116.6	80.45304731216
0	10401	116.7	80.501798953864
0	10422	116.8	80.551459428335
0	10428	116.9	80.600102188278
0	10434	117	80.648768106877
0	10440	117.1	80.697472664486
0	10446	117.2	80.747131909787
0	10452	117.3	80.795766800868
0	10458	117.4	80.84535971896
0	10479	117.5	80.895081547002
0	10485	117.6	80.943737680217
0	10491	117.7	80.993203721922
0	10512	117.8	81.042606739684
0	10518	117.9	81.091466665888
0	10524	118	81.140482170929
0	10530	118.1	81.189386453847
0	10536	118.2	81.239001467615
0	10542	118.3	81.288383388955
0	10548	118.4	81.3376358068
0	10569	118.5	81.387270371519
0	10575	118.6	81.435773495235
0	10581	118.7	81.484269945586
0	10602	118.8	81.532440726774
0	10608	118.9	81.581022057799
0	10614	119	81.629216129099
0	10620	119.1	81.678032760266
0	10626	119.2	81.727612565625
0	10632	119.3	81.776432275575
0	10638	119.4	81.824792460579
0	10659	119.5	81.874059591854
0	10665	119.6	81.923909587835
0	10671	119.7	81.973432741038
0	10692	119.8	82.022643814619
0	10698	119.9	82.07158740768
0	10704	120	82.120097674915
0	10710	120.1	82.169431212547
0	10745	120.2	82.218896740069
0	10751	120.3	82.268497314092
0	10757	120.4	82.317286186294
0	10778	120.5	82.36682972031
0	10784	120.6	82.415514460959
0	10790	120.7	82.464038636007
0	10811	120.8	82.512237083102
0	10817	120.9	82.559981778566
0	10823	121	82.607866308121
0	10829	121.1	82.65606321902
0	10835	121.2	82.704532584114
0	10841	121.3	82.7526586798
0	10847	121.4	82.801471750496
0	10868	121.5	82.850721795545
0	10874	121.6	82.899760096146
0	10880	121.7	82.948686047174
0	10901	121.8	82.998527439958
0	10907	121.9	83.047060209347
0	10913	122	83.096095800854
0	10919	122.1	83.145786705554
0	10925	122.2	83.19532594613
0	10931	122.3	83.243848787424
0	10937	122.4	83.292368762988
0	10958	122.5	83.341520821636
0	10964	122.6	83.39121917761
0	10970	122.7	83.441106834873
0	10991	122.8	83.490562013915
0	10997	122.9	83.539326384171
0	11003	123	83.588677616532
0	11009	123.1	83.638124880086
0	11015	123.2	83.686982725041
0	11021	123.3	83.735796649703
0	11027	123.4	83.78499192404
0	11048	123.5	83.834745445066
0	11054	123.6	83.883404785934
0	11060	123.7	83.932201534237
0	11081	123.8	83.981613130818
0	11087	123.9	84.031257945769
0	11093	124	84.080585367253
0	11099	124.1	84.129980646485
0	11105	124.2	84.179877325795
0	11111	124.3	84.228462612136
0	11117	124.4	84.276867467263
0	11138	124.5	84.325527500199
0	11144	124.6	84.374697179045
0	11150	124.7	84.424424964561
0	11171	124.8	84.474175530207
0	11177	124.9	84.523814794611
0	11183	125	84.573484002163
0	11189	125.1	84.622419451355
0	11224	125.2	84.671200449899
0	11230	125.3	84.720436225801
0	11236	125.4	84.770197135236
0	11257	125.5	84.819230033727
0	11263	125.6	84.868730787253
0	11269	125.7	84.917332413457
0	11290	125.8	84.965751048218
0	11296	125.9	85.013688045395
0	11302	126	85.061293997972
0	11308	126.1	85.109891977989
0	11314	126.2	85.159399454988
0	11320	126.3	85.208052166599
0	11326	126.4	85.257526479805
0	11347	126.5	85.306633104343
0	11353	126.6	85.35610087264
0	11359	126.7	85.406050215279
0	11380	126.8	85.455925901026
0	11386	126.9	85.504777152305
0	11392	127	85.553364800862
0	11398	127.1	85.602407613482
0	11404	127.2	85.65203745487
0	11410	127.3	85.701297068965
0	11416	127.4	85.751068644307
0	11437	127.5	85.80014323354
0	11443	127.6	85.849033971885
0	11449	127.7	85.897868761878
0	11470	127.8	85.946305432415
0	11476	127.9	85.994839532618
0	11482	128	86.043480836688
0	11488	128.1	86.092016662895
0	11494	128.2	86.140463813536
0	11500	128.3	86.189492206568
0	11506	128.4	86.238296325677
0	11527	128.5	86.286743785152
0	11533	128.6	86.335022131528
0	11539	128.7	86.383026403462
0	11560	128.8	86.430757593103
0	11566	128.9	86.479117356054
0	11572	129	86.527236542461
0	11578	129.1	86.575277257227
0	11584	129.2	86.623832923775
0	11590	129.3	86.672376566107
0	11596	129.4	86.72091042264
0	11617	129.5	86.769240745542
0	11623	129.6	86.818570977588
0	11629	129.7	86.8676001628
0	11650	129.8	86.916590829062
0	11656	129.9	86.965715375519
0	11662	130	87.014549308721
0	11668	130.1	87.064167949072
0	11703	130.2	87.113715985687
0	11709	130.3	87.162582184392
0	11715	130.4	87.211934001906
0	11736	130.5	87.261028527776
0	11742	130.6	87.310096438894
0	11748	130.7	87.359648518394
0	11769	130.8	87.408957154306
0	11775	130.9	87.457929955571
0	11781	131	87.506742268268
0	11787	131.1	87.555583754009
0	11793	131.2	87.604846631148
0	11799	131.3	87.654799269255
0	11805	131.4	87.703447757388
0	11826	131.5	87.753082182746
0	11832	131.6	87.802928597823
0	11838	131.7	87.851753686551
0	11859	131.8	87.901487436938
0	11865	131.9	87.950158742427
0	11871	132	87.998482881469
0	11877	132.1	88.047723048353
0	11883	132.2	88.096296614568
0	11889	132.3	88.145098487095
0	11895	132.4	88.194899322296
0	11916	132.5	88.244114275269
0	11922	132.6	88.293543382209
0	11928	132.7	88.342065342443
0	11949	132.8	88.391196420295
0	11955	132.9	88.440526600194
0	11961	133	88.490384554344
0	11967	133.1	88.539069581734
0	11973	133.2	88.588698307593
0	11979	133.3	88.637541445813
0	11985	133.4	88.686967090823
0	12006	133.5	88.736758390889
0	12012	133.6	88.785706229757
0	12018	133.7	88.834717322414
0	12039	133.8	88.884663949712
0	12045	133.9	88.934081696086
0	12051	134	88.983248177526
0	12057	134.1	89.03271351769
0	12063	134.2	89.081765939894
0	12069	134.3	89.131072065788
0	12075	134.4	89.180102572016
0	12096	134.5	89.229188266942
0	12102	134.6	89.278886841108
0	12108	134.7	89.328380079803
0	12129	134.8	89.377925200578
0	12135	134.9	89.426454585881
0	12141	135	89.475618115492
0	12147	135.1	89.525272657111
0	12182	135.2	89.575186451166
0	12188	135.3	89.623763786506
0	12194	135.4	89.672627117109
0	12215	135.5	89.721006899516
0	12221	135.6	89.769262129754
0	12227	135.7	89.818465991121
0	12248	135.8	89.867272673043
0	12254	135.9	89.915716254807
0	12260	136	89.964056226443
0	12266	136.1	90.012997302348
0	12272	136.2	90.062720224841
0	12278	136.3	90.112429137709
0	12284	136.4	90.160939807673
0	12305	136.5	90.209700445529
0	12311	136.6	90.257966272094
0	12317	136.7	90.306244192554
0	12338	136.8	90.35412647044
0	12344	136.9	90.402043619651
0	12350	137	90.450590903284
0	12356	137.1	90.499665653765
0	12362	137.2	90.548311185485
0	12368	137.3	90.596573576373
0	12374	137.4	90.644879206817
0	12395	137.5	90.694037993259
0	12401	137.6	90.743646626688
0	12407	137.7	90.793379732163
0	12428	137.8	90.842449651792
0	12434	137.9	90.892218067388
0	12440	138	90.941556796142
0	12446	138.1	90.990728135614
0	12452	138.2	91.040386329548
0	12458	138.3	91.090045594664
0	12464	138.4	91.139645175952
0	12485	138.5	91.188299589729
0	12491	138.6	91.23710706269
0	12497	138.7	91.286725818917
0	12518	138.8	91.336418301796
0	12524	138.9	91.385013034765
0	12530	139	91.434048108897
0	12536	139.1	91.483522528367
0	12542	139.2	91.532817537817
0	12548	139.3	91.582226296513
0	12554	139.4	91.631718874427
0	12575	139.5	91.681169154517
0	12581	139.6	91.729869466513
0	12587	139.7	91.778527686351
0	12608	139.8	91.828159253175
0	12614	139.9	91.8767220346
0	12620	140	91.925049458114
0	12626	140.1	91.972995292233
0	12661	140.2	92.021580082382
0	12667	140.3	92.070132178134
0	12673	140.4	92.118219130951
0	12694	140.5	92.167115453117
0	12700	140.6	92.215891743109
0	12706	140.7	92.265304236228
0	12727	140.8	92.314539205924
0	12733	140.9	92.364160496125
0	12739	141	92.413186948739
0	12745	141.1	92.462155564798
0	12751	141.2	92.512060256961
0	12757	141.3	92.561236401062
0	12763	141.4	92.610271602899
0	12784	141.5	92.659415967776
0	12790	141.6	92.709005451458
0	12796	141.7	92.758674215037
0	12817	141.8	92.808443841272
0	12823	141.9	92.857304031411
0	12829	142	92.905975144003
0	12835	142.1	92.954820750009
0	12841	142.2	93.003867867584
0	12847	142.3	93.05332620786
0	12853	142.4	93.103212432722
0	12874	142.5	93.151736387264
0	12880	142.6	93.199955569699
0	12886	142.7	93.248866503447
0	12907	142.8	93.298140158237
0	12913	142.9	93.347161386715
0	12919	143	93.396332417901
0	12925	143.1	93.445955617731
0	12931	143.2	93.495469539253
0	12937	143.3	93.544287292339
0	12943	143.4	93.593861369329
0	12964	143.5	93.643738997671
0	12970	143.6	93.692969220594
0	12976	143.7	93.74263722596
0	12997	143.8	93.792288751214
0	13003	143.9	93.841499876251
0	13009	144	93.890752075928
0	13015	144.1	93.939360138384
0	13021	144.2	93.988213026919
0	13027	144.3	94.037771354234
0	13033	144.4	94.087730736893
0	13054	144.5	94.137604469771
0	13060	144.6	94.186974683298
0	13066	144.7	94.236199001231
0	13087	144.8	94.285229265342
0	13093	144.9	94.334522455189
0	13099	145	94.383535156322
0	13105	145.1	94.43353408088
0	13140	145.2	94.483511909487
0	13146	145.3	94.532307808999
0	13152	145.4	94.581183155322
0	13173	145.5	94.629924894681
0	13179	145.6	94.679099028985
0	13185	145.7	94.728197628454
0	13206	145.8	94.77749387368
0	13212	145.9	94.826405899332
0	13218	146	94.876171435507
0	13224	146.1	94.925995198116
0	13230	146.2	94.974775362803
0	13236	146.3	95.024397468727
0	13242	146.4	95.072950702501
0	13263	146.5	95.121434977076
0	13269	146.6	95.170133259935
0	13275	146.7	95.218502365776
0	13296	146.8	95.26657647644
0	13302	146.9	95.314487446823
0	13308	147	95.362202477909
0	13314	147.1	95.409745273219
0	13320	147.2	95.457433509466
0	13326	147.3	95.505031469173
0	13332	147.4	95.552943704451
0	13353	147.5	95.600652616055
0	13359	147.6	95.648246230824
0	13365	147.7	95.695540408222
0	13386	147.8	95.742443350927
0	13392	147.9	95.790325837012
0	13398	148	95.838487690959
0	13404	148.1	95.886273816956
0	13410	148.2	95.934805040473
0	13416	148.3	95.984277430535
0	13422	148.4	96.033632212111
0	13443	148.5	96.082985332129
0	13449	148.6	96.13218853945
0	13455	148.7	96.181482568417
0	13476	148.8	96.230435577686
0	13482	148.9	96.279575853361
0	13488	149	96.328762342675
0	13494	149.1	96.377761522797
0	13500	149.2	96.426977117733
0	13506	149.3	96.476883921523
0	13512	149.4	96.525667033174
0	13533	149.5	96.575020464513
0	13539	149.6	96.62366798886
0	13545	149.7	96.672352162656
0	13566	149.8	96.720890533367
0	13572	149.9	96.769960137597
0	13578	150	96.819725990185
0	13584	150.1	96.868748789594
0	13619	150.2	96.918243168004
0	13625	150.3	96.96759781479
0	13631	150.4	97.016323810288
0	13652	150.5	97.06601630844
0	13658	150.6	97.114824849935
0	13664	150.7	97.163246953306
0	13685	150.8	97.211909681354
0	13691	150.9	97.261356140827
0	13697	151	97.310761789104
0	13703	151.1	97.360538326804
0	13709	151.2	97.410354209578
0	13715	151.3	97.458908340094
0	13721	151.4	97.50800733871
0	13742	151.5	97.557607318438
0	13748	151.6	97.606450680588
0	13754	151.7	97.655501562745
0	13775	151.8	97.704192076878
0	13781	151.9	97.75238281026
0	13787	152	97.801453116391
0	13793	152.1	97.851238498756
0	13799	152.2	97.899823844176
0	13805	152.3	97.949092237254
0	13811	152.4	97.999024842574
0	13832	152.5	98.047734299473
0	13838	152.6	98.097333395454
0	13844	152.7	98.145890633565
0	13865	152.8	98.194307453014
0	13871	152.9	98.243117638989
0	13877	153	98.292830147241
0	13883	153.1	98.341762725501
0	13889	153.2	98.390840552438
0	13895	153.3	98.440613473958
0	13901	153.4	98.489672462349
0	13922	153.5	98.538686510832
0	13928	153.6	98.587268382406
0	13934	153.7	98.63616350121
0	13955	153.8	98.68528988745
0	13961	153.9	98.733927079979
0	13967	154	98.783194669023
0	13973	154.1	98.832799649242
0	13979	154.2	98.881404483088
0	13985	154.3	98.930449143591
0	13991	154.4	98.979291695398
0	14012	154.5	99.028624482653
0	14018	154.6	99.078297290627
0	14024	154.7	99.127834061963
0	14045	154.8	99.177073613381
0	14051	154.9	99.226740941804
0	14057	155	99.275645938045
0	14063	155.1	99.325438552124
0	14098	155.2	99.37460857926
0	14104	155.3	99.423743594172
0	14110	155.4	99.473270087791
0	14131	155.5	99.523203386031
0	14137	155.6	99.572434920943
0	14143	155.7	99.6223391829
0	14164	155.8	99.671067088443
0	14170	155.9	99.719370939139
0	14176	156	99.768277352648
0	14182	156.1	99.818031705091
0	14188	156.2	99.867601616321
0	14194	156.3	99.917306646896
0	14200	156.4	99.967293290898
0	14221	156.5	100.0159563388
0	14227	156.6	100.06443586372
0	14233	156.7	100.11346107137
0	14254	156.8	100.16249383092
0	14260	156.9	100.21103821548
0	14266	157	100.25940426748
0	14272	157.1	100.30764685995
0	14278	157.2	100.35597801626
0	14284	157.3	100.40475426152
0	14290	157.4	100.45365354709
0	14311	157.5	100.50331691054
0	14317	157.6	100.5532602644
0	14323	157.7	100.6026711356
0	14344	157.8	100.65243994082
0	14350	157.9	100.7022108273
0	14356	158	100.75149108202
0	14362	158.1	100.8012256788
0	14368	158.2	100.85092586017
0	14374	158.3	100.90006315175
0	14380	158.4	100.94937755751
0	14401	158.5	100.99830037895
0	14407	158.6	101.04752862532
0	14413	158.7	101.09706766547
0	14434	158.8	101.14611386379
0	14440	158.9	101.19538992212
0	14446	159	101.2439235476
0	14452	159.1	101.29308552207
0	14458	159.2	101.34207293527
0	14464	159.3	101.39057929278
0	14470	159.4	101.43869666025
0	14491	159.5	101.48743517713
0	14497	159.6	101.53609449034
0	14503	159.7	101.58517399587
0	14524	159.8	101.63403476072
0	14530	159.9	101.68370696462
0	14536	160	101.73224732092
0	14542	160.1	101.78156342941
0	14577	160.2	101.83051412553
0	14583	160.3	101.87994655036
0	14589	160.4	101.92966614455
0	14610	160.5	101.979079863
0	14616	160.6	102.02762282331
0	14622	160.7	102.07699363259
0	14643	160.8	102.12694399203
0	14649	160.9	102.17574981637
0	14655	161	102.22432564714
0	14661	161.1	102.27317278561
0	14667	161.2	102.32157852602
0	14673	161.3	102.37004269103
0	14679	161.4	102.41862035934
0	14700	161.5	102.46694861254
0	14706	161.6	102.51627519146
0	14712	161.7	102.56598014169
0	14733	161.8	102.61554942934
0	14739	161.9	102.66487932421
0	14745	162	102.71469363068
0	14751	162.1	102.76340404385
0	14757	162.2	102.81204102372
0	14763	162.3	102.86052150856
0	14769	162.4	102.90986531275
0	14790	162.5	102.9591131194
0	14796	162.6	103.00893353124
0	14802	162.7	103.05852247039
0	14823	162.8	103.10714164901
0	14829	162.9	103.15560188605
0	14835	163	103.20390403787
0	14841	163.1	103.2520765603
0	14847	163.2	103.30064211775
0	14853	163.3	103.35007724218
0	14859	163.4	103.39868092663
0	14880	163.5	103.44724302025
0	14886	163.6	103.49563775127
0	14892	163.7	103.54384506049
0	14913	163.8	103.59181735858
0	14919	163.9	103.64021614398
0	14925	164	103.68821275758
0	14931	164.1	103.73650498897
0	14937	164.2	103.78547328101
0	14943	164.3	103.83466963573
0	14949	164.4	103.88370364031
0	14970	164.5	103.93322451081
0	14976	164.6	103.98306430129
0	14982	164.7	104.0323790038
0	15003	164.8	104.08164730489
0	15009	164.9	104.1304901963
0	15015	165	104.18022445343
0	15021	165.1	104.22921880826
0	15056	165.2	104.27899117848
0	15062	165.3	104.32796950622
0	15068	165.4	104.37743485917
0	15089	165.5	104.42616723016
0	15095	165.6	104.47521504427
0	15101	165.7	104.52486448155
0	15122	165.8	104.57372069447
0	15128	165.9	104.62210892567
0	15134	166	104.67054669198
0	15140	166.1	104.71978281621
0	15146	166.2	104.76947625559
0	15152	166.3	104.81890676339
0	15158	166.4	104.86816189662
0	15179	166.5	104.91813168474
0	15185	166.6	104.96740912848
0	15191	166.7	105.01669680117
0	15212	166.8	105.06604297664
0	15218	166.9	105.11557998995
0	15224	167	105.16414457756
0	15230	167.1	105.21271015731
0	15236	167.2	105.26109429447
0	15242	167.3	105.30970503875
0	15248	167.4	105.35876656283
0	15269	167.5	105.40820974336
0	15275	167.6	105.45779966828
0	15281	167.7	105.50697922339
0	15302	167.8	105.55569801787
0	15308	167.9	105.6053580089
0	15314	168	105.65423106193
0	15320	168.1	105.70292846913
0	15326	168.2	105.75203379032
0	15332	168.3	105.80091809887
0	15338	168.4	105.85021847682
0	15359	168.5	105.89974539602
0	15365	168.6	105.94939217231
0	15371	168.7	105.99818648479
0	15392	168.8	106.04793717598
0	15398	168.9	106.0975785294
0	15404	169	106.14712648854
0	15410	169.1	106.1962150424
0	15416	169.2	106.24557631608
0	15422	169.3	106.29458172378
0	15428	169.4	106.34436713164
0	15449	169.5	106.39385195092
0	15455	169.6	106.4430579856
0	15461	169.7	106.49212413731
0	15482	169.8	106.54171973627
0	15488	169.9	106.5913279811
0	15494	170	106.64125840513
0	15500	170.1	106.69002433938
0	15535	170.2	106.73974835418
0	15541	170.3	106.78920740206
0	15547	170.4	106.83893754251
0	15568	170.5	106.88818489103
0	15574	170.6	106.93671391763
0	15580	170.7	106.98561146622
0	15601	170.8	107.03463057261
0	15607	170.9	107.08374381621
0	15613	171	107.13365831794
0	15619	171.1	107.18257661144
0	15625	171.2	107.23133027336
0	15631	171.3	107.27998329129
0	15637	171.4	107.32941619496
0	15658	171.5	107.37873537462
0	15664	171.6	107.42813963514
0	15670	171.7	107.47756099563
0	15691	171.8	107.52745855649
0	15697	171.9	107.57627309942
0	15703	172	107.62608024866
0	15709	172.1	107.67583535317
0	15715	172.2	107.72479011217
0	15721	172.3	107.77440372409
0	15727	172.4	107.82313319807
0	15748	172.5	107.87196023356
0	15754	172.6	107.92065737807
0	15760	172.7	107.97001580931
0	15781	172.8	108.01888873781
0	15787	172.9	108.0675075866
0	15793	173	108.11631340937
0	15799	173.1	108.16607813104
0	15805	173.2	108.2155831717
0	15811	173.3	108.26469645808
0	15817	173.4	108.31328931796
0	15838	173.5	108.36255592163
0	15844	173.6	108.41249034812
0	15850	173.7	108.46159636956
0	15871	173.8	108.51078485604
0	15877	173.9	108.56017511583
0	15883	174	108.60874477099
0	15889	174.1	108.65818799392
0	15895	174.2	108.70676134054
0	15901	174.3	108.75628220315
0	15907	174.4	108.80547378654
0	15928	174.5	108.85405533245
0	15934	174.6	108.90294424748
0	15940	174.7	108.95266779116
0	15961	174.8	109.00121475906
0	15967	174.9	109.050084343
0	15973	175	109.0987305105
0	15979	175.1	109.14735431084
0	16014	175.2	109.19636942792
0	16020	175.3	109.24489581553
0	16026	175.4	109.29343649148
0	16047	175.5	109.34184096117
0	16053	175.6	109.39121292746
0	16059	175.7	109.44029916902
0	16080	175.8	109.48888138407
0	16086	175.9	109.53810057931
0	16092	176	109.58772513252
0	16098	176.1	109.63644983976
0	16104	176.2	109.68475656713
0	16110	176.3	109.73350635235
0	16116	176.4	109.78224250475
0	16137	176.5	109.83060518664
0	16143	176.6	109.87982518338
0	16149	176.7	109.92909777036
0	16170	176.8	109.97792658757
0	16176	176.9	110.02678265944
0	16182	177	110.07644896317
0	16188	177.1	110.12515892332
0	16194	177.2	110.1739417738
0	16200	177.3	110.22229863414
0	16206	177.4	110.27075279062
0	16227	177.5	110.3189850694
0	16233	177.6	110.36673627318
0	16239	177.7	110.41430629956
0	16260	177.8	110.46213925584
0	16266	177.9	110.51008950334
0	16272	178	110.55817988072
0	16278	178.1	110.6071960731
0	16284	178.2	110.65661813576
0	16290	178.3	110.70598472153
0	16296	178.4	110.75579027414
0	16317	178.5	110.80572831462
0	16323	178.6	110.85572119335
0	16329	178.7	110.90518598573
0	16350	178.8	110.9548221877
0	16356	178.9	111.00398910947
0	16362	179	111.05260320745
0	16368	179.1	111.10215873455
0	16374	179.2	111.15150583532
0	16380	179.3	111.20050436673
0	16386	179.4	111.25037658689
0	16407	179.5	111.29945863225
0	16413	179.6	111.34890498383
0	16419	179.7	111.3977570783
0	16440	179.8	111.44723775014
0	16446	179.9	111.49705250731
0	16452	180	111.54689194342
0	16458	180.1	111.59614979635
0	16493	180.2	111.64530669838
0	16499	180.3	111.69497852341
0	16505	180.4	111.74415232448
0	16526	180.5	111.79307554548
0	16532	180.6	111.84262406204
0	16538	180.7	111.89260881462
0	16559	180.8	111.94136221474
0	16565	180.9	111.98985009761
0	16571	181	112.03877145955
0	16577	181.1	112.08728545585
0	16583	181.2	112.13555925723
0	16589	181.3	112.18435699799
0	16595	181.4	112.23325744997
0	16616	181.5	112.28255171963
0	16622	181.6	112.3323764189
0	16628	181.7	112.38175769667
0	16649	181.8	112.43049220914
0	16655	181.9	112.47944205835
0	16661	182	112.5284793051
0	16667	182.1	112.57793949407
0	16673	182.2	112.62767578954
0	16679	182.3	112.67682073099
0	16685	182.4	112.72599306433
0	16706	182.5	112.77455886986
0	16712	182.6	112.82411063752
0	16718	182.7	112.87276340529
0	16739	182.8	112.92102740246
0	16745	182.9	112.96993046385
0	16751	183	113.01976500962
0	16757	183.1	113.06849171994
0	16763	183.2	113.11796496618
0	16769	183.3	113.16736963991
0	16775	183.4	113.21668984257
0	16796	183.5	113.26620234417
0	16802	183.6	113.31556255287
0	16808	183.7	113.36509568267
0	16829	183.8	113.4143078477
0	16835	183.9	113.46424782209
0	16841	184	113.51336136847
0	16847	184.1	113.56313203795
0	16853	184.2	113.61166743405
0	16859	184.3	113.66023441713
0	16865	184.4	113.70978952094
0	16886	184.5	113.75973091712
0	16892	184.6	113.80932632033
0	16898	184.7	113.85818041575
0	16919	184.8	113.90789611465
0	16925	184.9	113.95690301352
0	16931	185	114.00607565012
0	16937	185.1	114.05542085154
0	16972	185.2	114.10515484581
0	16978	185.3	114.1551057667
0	16984	185.4	114.20433721195
0	17005	185.5	114.25356529798
0	17011	185.6	114.30354294797
0	17017	185.7	114.3525790845
0	17038	185.8	114.40203702763
0	17044	185.9	114.4513150666
0	17050	186	114.50062643688
0	17056	186.1	114.54958005128
0	17062	186.2	114.59877429787
0	17068	186.3	114.64821921982
0	17074	186.4	114.69792447455
0	17095	186.5	114.74787965284
0	17101	186.6	114.79754038127
0	17107	186.7	114.84660766636
0	17128	186.8	114.89622045531
0	17134	186.9	114.94520241334
0	17140	187	114.99377798545
0	17146	187.1	115.04296870636
0	17152	187.2	115.0918079572
0	17158	187.3	115.14066297038
0	17164	187.4	115.18991860555
0	17185	187.5	115.23885911422
0	17191	187.6	115.28838011263
0	17197	187.7	115.33793104419
0	17218	187.8	115.38733030622
0	17224	187.9	115.43669475429
0	17230	188	115.48586632318
0	17236	188.1	115.53529125108
0	17242	188.2	115.58400802544
0	17248	188.3	115.63277539156
0	17254	188.4	115.68117189408
0	17275	188.5	115.73001898419
0	17281	188.6	115.7783890717
0	17287	188.7	115.82669219503
0	17308	188.8	115.87484295348
0	17314	188.9	115.92312659104
0	17320	189	115.97109143976
0	17326	189.1	116.01990940525
0	17332	189.2	116.06855763653
0	17338	189.3	116.11722773017
0	17344	189.4	116.16563633652
0	17365	189.5	116.21372613187
0	17371	189.6	116.26211860963
0	17377	189.7	116.3100674754
0	17398	189.8	116.35779537879
0	17404	189.9	116.40521965127
0	17410	190	116.45362460786
0	17416	190.1	116.5016082929
0	17451	190.2	116.55021000502
0	17457	190.3	116.59886636191
0	17463	190.4	116.64783782011
0	17484	190.5	116.69689159101
0	17490	190.6	116.74602006314
0	17496	190.7	116.79486312971
0	17517	190.8	116.84387887351
0	17523	190.9	116.8930389676
0	17529	191	116.94215130643
0	17535	191.1	116.99182368636
0	17541	191.2	117.0407984522
0	17547	191.3	117.08929862841
0	17553	191.4	117.13740962731
0	17574	191.5	117.18616818038
0	17580	191.6	117.234460272
0	17586	191.7	117.28250714136
0	17607	191.8	117.3301040332
0	17613	191.9	117.37723887051
0	17619	192	117.42467511049
0	17625	192.1	117.47217133729
0	17631	192.2	117.52026812954
0	17637	192.3	117.56905196252
0	17643	192.4	117.61816318526
0	17664	192.5	117.66778725312
0	17670	192.6	117.71650833909
0	17676	192.7	117.76614172924
0	17697	192.8	117.81570799919
0	17703	192.9	117.86544152158
0	17709	193	117.91529365471
0	17715	193.1	117.96452895683
0	17721	193.2	118.01324675792
0	17727	193.3	118.06231099003
0	17733	193.4	118.11191303577
0	17754	193.5	118.16058980075
0	17760	193.6	118.20888487569
0	17766	193.7	118.25742125267
0	17787	193.8	118.30597044191
0	17793	193.9	118.35542738319
0	17799	194	118.40491527524
0	17805	194.1	118.45433083057
0	17811	194.2	118.50357262105
0	17817	194.3	118.55229964847
0	17823	194.4	118.60081232633
0	17844	194.5	118.65031033791
0	17850	194.6	118.70007728113
0	17856	194.7	118.74951153967
0	17877	194.8	118.79874351352
0	17883	194.9	118.84783302977
0	17889	195	118.89761643304
0	17895	195.1	118.94657199677
0	17930	195.2	118.99519139169
0	17936	195.3	119.04447520996
0	17942	195.4	119.09366538171
0	17963	195.5	119.14218073441
0	17969	195.6	119.1907298941
0	17975	195.7	119.2401391728
0	17996	195.8	119.28897914027
0	18002	195.9	119.33805729725
0	18008	196	119.3878892752
0	18014	196.1	119.43711654577
0	18020	196.2	119.48598368632
0	18026	196.3	119.53567511403
0	18032	196.4	119.58514073008
0	18053	196.5	119.63501713556
0	18059	196.6	119.68478988996
0	18065	196.7	119.73471114418
0	18086	196.8	119.78437192953
0	18092	196.9	119.83369058106
0	18098	197	119.88250344966
0	18104	197.1	119.93128686691
0	18110	197.2	119.98018897647
0	18116	197.3	120.02861119539
0	18122	197.4	120.07733787228
0	18143	197.5	120.12569183196
0	18149	197.6	120.17454083144
0	18155	197.7	120.22375010911
0	18176	197.8	120.27315420704
0	18182	197.9	120.32225897776
0	18188	198	120.37086089267
0	18194	198.1	120.41931114119
0	18200	198.2	120.4675104713
0	18206	198.3	120.51552164348
0	18212	198.4	120.56310496508
0	18233	198.5	120.611516968
0	18239	198.6	120.65970737473
0	18245	198.7	120.70788937221
0	18266	198.8	120.75702226286
0	18272	198.9	120.80642399158
0	18278	199	120.85594631585
0	18284	199.1	120.90579152616
0	18290	199.2	120.9553267474
0	18296	199.3	121.00515816077
0	18302	199.4	121.05515237073
0	18323	199.5	121.10382097128
0	18329	199.6	121.15325430731
0	18335	199.7	121.20252254952
0	18356	199.8	121.25243943798
0	18362	199.9	121.30122158349
0	18368	200	121.34986961845
0	18374	200.1	121.39828801791
0	18409	200.2	121.4466341647
0	18415	200.3	121.49470470374
0	18421	200.4	121.54332925512
0	18442	200.5	121.59254485331
0	18448	200.6	121.64248162681
0	18454	200.7	121.69102440676
0	18475	200.8	121.74010815251
0	18481	200.9	121.78976701667
0	18487	201	121.83966463683
0	18493	201.1	121.88901990168
0	18499	201.2	121.93780698949
0	18505	201.3	121.98711468841
0	18511	201.4	122.03594413341
0	18532	201.5	122.08461274572
0	18538	201.6	122.13287658232
0	18544	201.7	122.18175519935
0	18565	201.8	122.23075624755
0	18571	201.9	122.279362084
0	18577	202	122.32861565199
0	18583	202.1	122.37841340398
0	18589	202.2	122.42784272946
0	18595	202.3	122.47647711513
0	18601	202.4	122.52498719557
0	18622	202.5	122.5744410595
0	18628	202.6	122.62328116641
0	18634	202.7	122.6724435263
0	18655	202.8	122.7214440457
0	18661	202.9	122.77037832095
0	18667	203	122.8194831197
0	18673	203.1	122.86843810231
0	18679	203.2	122.91744011407
0	18685	203.3	122.96641811055
0	18691	203.4	123.01624025486
0	18712	203.5	123.06510409855
0	18718	203.6	123.11423150822
0	18724	203.7	123.16394833535
0	18745	203.8	123.21348101301
0	18751	203.9	123.26255021265
0	18757	204	123.31110435076
0	18763	204.1	123.36037636735
0	18769	204.2	123.40903342875
0	18775	204.3	123.45772032699
0	18781	204.4	123.50666100545
0	18802	204.5	123.55604639106
0	18808	204.6	123.60581547686
0	18814	204.7	123.65563450744
0	18835	204.8	123.70543810524
0	18841	204.9	123.7550959059
0	18847	205	123.80381695493
0	18853	205.1	123.85317032989
0	18888	205.2	123.90263560256
0	18894	205.3	123.95123767321
0	18900	205.4	124.00011930062
0	18921	205.5	124.04911279571
0	18927	205.6	124.09786318935
0	18933	205.7	124.14739929891
0	18954	205.8	124.19659871422
0	18960	205.9	124.24645050549
0	18966	206	124.29563633152
0	18972	206.1	124.34474476353
0	18978	206.2	124.39392562947
0	18984	206.3	124.44337920262
0	18990	206.4	124.49210654485
0	19011	206.5	124.54136943629
0	19017	206.6	124.59022354498
0	19023	206.7	124.63940493049
0	19044	206.8	124.68819679874
0	19050	206.9	124.73680136077
0	19056	207	124.78517457283
0	19062	207.1	124.83351147873
0	19068	207.2	124.88171144191
0	19074	207.3	124.92974178285
0	19080	207.4	124.97764510414
0	19101	207.5	125.0259603055
0	19107	207.6	125.07497934489
0	19113	207.7	125.12352414859
0	19134	207.8	125.17268448707
0	19140	207.9	125.22121392445
0	19146	208	125.27059008553
0	19152	208.1	125.31934962385
0	19158	208.2	125.3687918852
0	19164	208.3	125.41754546299
0	19170	208.4	125.46719526357
0	19191	208.5	125.5158952091
0	19197	208.6	125.5649676095
0	19203	208.7	125.61358037219
0	19224	208.8	125.66222971587
0	19230	208.9	125.71110451484
0	19236	209	125.76012845297
0	19242	209.1	125.80932376952
0	19248	209.2	125.85911861461
0	19254	209.3	125.90811126213
0	19260	209.4	125.95783583398
0	19281	209.5	126.00657857074
0	19287	209.6	126.05622694706
0	19293	209.7	126.10479534574
0	19314	209.8	126.15414030645
0	19320	209.9	126.20390709662
0	19326	210	126.25380196347
0	19332	210.1	126.30357724022
0	19367	210.2	126.35271624967
0	19373	210.3	126.40218089379
0	19379	210.4	126.45078013381
0	19400	210.5	126.49982988308
0	19406	210.6	126.54844067101
0	19412	210.7	126.59796360783
0	19433	210.8	126.64763369787
0	19439	210.9	126.69636968085
0	19445	211	126.74586015421
0	19451	211.1	126.79546977539
0	19457	211.2	126.84491294931
0	19463	211.3	126.8940366516
0	19469	211.4	126.94344818493
0	19490	211.5	126.99304592527
0	19496	211.6	127.04231550901
0	19502	211.7	127.09151772037
0	19523	211.8	127.14007410496
0	19529	211.9	127.18861655763
0	19535	212	127.23787075042
0	19541	212.1	127.28672875501
0	19547	212.2	127.33511504694
0	19553	212.3	127.38427526616
0	19559	212.4	127.43403188845
0	19580	212.5	127.48385986697
0	19586	212.6	127.53342372477
0	19592	212.7	127.58237976344
0	19613	212.8	127.63183663684
0	19619	212.9	127.6816934519
0	19625	213	127.7307485991
0	19631	213.1	127.77958589178
0	19637	213.2	127.82881562222
0	19643	213.3	127.87781539681
0	19649	213.4	127.92693162471
0	19670	213.5	127.97596615868
0	19676	213.6	128.02533333549
0	19682	213.7	128.07461768627
0	19703	213.8	128.12339526187
0	19709	213.9	128.17229215445
0	19715	214	128.2220476149
0	19721	214.1	128.27200283434
0	19727	214.2	128.32123595691
0	19733	214.3	128.37041896717
0	19739	214.4	128.41919471504
0	19760	214.5	128.46787480768
0	19766	214.6	128.51721682593
0	19772	214.7	128.56602643037
0	19793	214.8	128.61489236138
0	19799	214.9	128.66440838592
0	19805	215	128.71363457583
0	19811	215.1	128.76327453433
0	19846	215.2	128.81219195003
0	19852	215.3	128.8616565674
0	19858	215.4	128.91091145077
0	19879	215.5	128.95956415635
0	19885	215.6	129.00773581985
0	19891	215.7	129.05547063536
0	19912	215.8	129.10304975129
0	19918	215.9	129.15142456231
0	19924	216	129.20009745269
0	19930	216.1	129.24831791479
0	19936	216.2	129.29700886251
0	19942	216.3	129.3464605654
0	19948	216.4	129.39617359656
0	19969	216.5	129.44534957408
0	19975	216.6	129.49531702137
0	19981	216.7	129.5441616292
0	20002	216.8	129.5934173835
0	20008	216.9	129.64308234617
0	20014	217	129.69264495116
0	20020	217.1	129.74144023504
0	20026	217.2	129.79117974721
0	20032	217.3	129.84002276593
0	20038	217.4	129.88872233929
0	20059	217.5	129.9382996008
0	20065	217.6	129.98705304622
0	20071	217.7	130.03654842838
0	20092	217.8	130.08634377983
0	20098	217.9	130.13609417803
0	20104	218	130.18609004102
0	20110	218.1	130.23528985599
0	20116	218.2	130.28473639221
0	20122	218.3	130.33452151236
0	20128	218.4	130.3832184195
0	20149	218.5	130.43215602413
0	20155	218.6	130.48157056667
0	20161	218.7	130.5307714858
0	20182	218.8	130.57955766796
0	20188	218.9	130.6290874479
0	20194	219	130.67778893299
0	20200	219.1	130.7266122509
0	20206	219.2	130.77551227095
0	20212	219.3	130.82452947775
0	20218	219.4	130.87419749908
0	20239	219.5	130.92392039128
0	20245	219.6	130.9732043628
0	20251	219.7	131.0226698487
0	20272	219.8	131.07230859417
0	20278	219.9	131.12143669023
0	20284	220	131.17015241335
0	20290	220.1	131.21903278986
0	20325	220.2	131.26755338154
0	20331	220.3	131.3159987807
0	20337	220.4	131.36409352394
0	20358	220.5	131.4128857011
0	20364	220.6	131.46179687335
0	20370	220.7	131.51117602898
0	20391	220.8	131.56006047133
0	20397	220.9	131.60927009419
0	20403	221	131.65865182245
0	20409	221.1	131.70843735428
0	20415	221.2	131.75790552256
0	20421	221.3	131.80690381738
0	20427	221.4	131.85613895335
0	20448	221.5	131.90536025548
0	20454	221.6	131.95438800668
0	20460	221.7	132.00397425035
0	20481	221.8	132.05364313096
0	20487	221.9	132.1021914931
0	20493	222	132.15153310828
0	20499	222.1	132.201411611
0	20505	222.2	132.25035613548
0	20511	222.3	132.29932997198
0	20517	222.4	132.34874734859
0	20538	222.5	132.39863216923
0	20544	222.6	132.44821287432
0	20550	222.7	132.49811953746
0	20571	222.8	132.5466358555
0	20577	222.9	132.59510906253
0	20583	223	132.64393442991
0	20589	223.1	132.69238020233
0	20595	223.2	132.74097780613
0	20601	223.3	132.78950849747
0	20607	223.4	132.83827903419
0	20628	223.5	132.88680985399
0	20634	223.6	132.93486700406
0	20640	223.7	132.98330596233
0	20661	223.8	133.03252397461
0	20667	223.9	133.08192120783
0	20673	224	133.13072463995
0	20679	224.1	133.180527792
0	20685	224.2	133.22909589983
0	20691	224.3	133.27767023595
0	20697	224.4	133.32677860032
0	20718	224.5	133.37604386826
0	20724	224.6	133.42564775914
0	20730	224.7	133.47499386222
0	20751	224.8	133.52403653356
0	20757	224.9	133.57302541762
0	20763	225	133.62253014168
0	20769	225.1	133.67249569232
0	20804	225.2	133.72192990084
0	20810	225.3	133.77136683385
0	20816	225.4	133.82074879722
0	20837	225.5	133.86930020901
0	20843	225.6	133.91739647534
0	20849	225.7	133.96626967046
0	20870	225.8	134.01477271667
0	20876	225.9	134.06280807342
0	20882	226	134.11145845889
0	20888	226.1	134.15999730852
0	20894	226.2	134.20927297587
0	20900	226.3	134.25856502741
0	20906	226.4	134.30765422052
0	20927	226.5	134.3573848378
0	20933	226.6	134.40656406167
0	20939	226.7	134.45545581472
0	20960	226.8	134.50434644114
0	20966	226.9	134.55329094781
0	20972	227	134.60305480612
0	20978	227.1	134.65162022185
0	20984	227.2	134.70097426201
0	20990	227.3	134.750055905
0	20996	227.4	134.7998616079
0	21017	227.5	134.84905205289
0	21023	227.6	134.89775090244
0	21029	227.7	134.94650432385
0	21050	227.8	134.99489486524
0	21056	227.9	135.04329759021
0	21062	228	135.09201721564
0	21068	228.1	135.14103654768
0	21074	228.2	135.19071909142
0	21080	228.3	135.23928829987
0	21086	228.4	135.28839111932
0	21107	228.5	135.3377912005
0	21113	228.6	135.38774651619
0	21119	228.7	135.43716450703
0	21140	228.8	135.4869894484
0	21146	228.9	135.53670231008
0	21152	229	135.58551800263
0	21158	229.1	135.63462541008
0	21164	229.2	135.68336880146
0	21170	229.3	135.73262791948
0	21176	229.4	135.78205312534
0	21197	229.5	135.83080492347
0	21203	229.6	135.88045527429
0	21209	229.7	135.92922464061
0	21230	229.8	135.978685922
0	21236	229.9	136.02770352644
0	21242	230	136.07690422218
0	21248	230.1	136.12572029395
0	21283	230.2	136.17438661889
0	21289	230.3	136.22318983784
0	21295	230.4	136.27212202283
0	21316	230.5	136.32095266628
0	21322	230.6	136.36986746486
0	21328	230.7	136.41894377599
0	21349	230.8	136.46819723296
0	21355	230.9	136.51676096826
0	21361	231	136.56599284363
0	21367	231.1	136.61533720227
0	21373	231.2	136.66470902118
0	21379	231.3	136.71382918657
0	21385	231.4	136.76280351218
0	21406	231.5	136.81244368114
0	21412	231.6	136.86160089471
0	21418	231.7	136.91022031152
0	21439	231.8	136.95948820767
0	21445	231.9	137.00932200172
0	21451	232	137.05890315309
0	21457	232.1	137.10807404199
0	21463	232.2	137.15739531976
0	21469	232.3	137.20673474118
0	21475	232.4	137.25575344332
0	21496	232.5	137.30437871523
0	21502	232.6	137.35372519316
0	21508	232.7	137.40320233271
0	21529	232.8	137.45262458518
0	21535	232.9	137.50239452966
0	21541	233	137.55105877254
0	21547	233.1	137.5993243503
0	21553	233.2	137.64709111606
0	21559	233.3	137.69550206973
0	21565	233.4	137.74480539554
0	21586	233.5	137.79458283519
0	21592	233.6	137.84335153671
0	21598	233.7	137.89172572096
0	21619	233.8	137.94056605809
0	21625	233.9	137.98896265096
0	21631	234	138.03716381644
0	21637	234.1	138.08583474284
0	21643	234.2	138.13422923988
0	21649	234.3	138.18266222836
0	21655	234.4	138.23142549146
0	21676	234.5	138.28051086618
0	21682	234.6	138.32906768653
0	21688	234.7	138.37818497262
0	21709	234.8	138.42718043038
0	21715	234.9	138.47596957286
0	21721	235	138.52518064016
0	21727	235.1	138.57448420515
0	21762	235.2	138.62352079809
0	21768	235.3	138.67263912626
0	21774	235.4	138.72153928746
0	21795	235.5	138.77015597886
0	21801	235.6	138.81896005529
0	21807	235.7	138.86732500233
0	21828	235.8	138.91626824599
0	21834	235.9	138.96611135445
0	21840	236	139.01553482386
0	21846	236.1	139.06408868445
0	21852	236.2	139.11249664499
0	21858	236.3	139.16160926755
0	21864	236.4	139.2101397091
0	21885	236.5	139.25861652464
0	21891	236.6	139.30689448628
0	21897	236.7	139.35609164428
0	21918	236.8	139.40500765816
0	21924	236.9	139.45419823258
0	21930	237	139.50300584311
0	21936	237.1	139.55173936706
0	21942	237.2	139.60120826287
0	21948	237.3	139.6498301828
0	21954	237.4	139.69858554305
0	21975	237.5	139.74776231412
0	21981	237.6	139.79742075452
0	21987	237.7	139.84624544573
0	22008	237.8	139.89461408335
0	22014	237.9	139.9428794404
0	22020	238	139.99123000204
0	22026	238.1	140.03915505936
0	22032	238.2	140.08701275929
0	22038	238.3	140.13518575025
0	22044	238.4	140.18387626045
0	22065	238.5	140.2332837126
0	22071	238.6	140.28197319147
0	22077	238.7	140.33057833651
0	22098	238.8	140.37871636318
0	22104	238.9	140.42774158478
0	22110	239	140.47726949869
0	22116	239.1	140.52665980488
0	22122	239.2	140.57521599136
0	22128	239.3	140.62388599796
0	22134	239.4	140.67253587888
0	22155	239.5	140.72177946625
0	22161	239.6	140.77139323378
0	22167	239.7	140.82087907621
0	22188	239.8	140.8707530808
0	22194	239.9	140.9193438074
0	22200	240	140.96832679243
0	22206	240.1	141.01800902503
0	22241	240.2	141.06749330397
0	22247	240.3	141.11719962042
0	22253	240.4	141.16681586151
0	22274	240.5	141.21567946756
0	22280	240.6	141.26518604054
0	22286	240.7	141.31413777539
0	22307	240.8	141.36319946197
0	22313	240.9	141.41298183763
0	22319	241	141.46183627472
0	22325	241.1	141.51041140306
0	22331	241.2	141.55855255022
0	22337	241.3	141.60625519835
0	22343	241.4	141.65389829029
0	22364	241.5	141.70210436542
0	22370	241.6	141.75125357306
0	22376	241.7	141.80066822743
0	22397	241.8	141.84956853752
0	22403	241.9	141.89805788969
0	22409	242	141.94737693132
0	22415	242.1	141.99656356841
0	22421	242.2	142.04585140784
0	22427	242.3	142.09578281538
0	22433	242.4	142.14480679925
0	22454	242.5	142.19349792971
0	22460	242.6	142.24249628127
0	22466	242.7	142.29170973424
0	22487	242.8	142.34144304943
0	22493	242.9	142.39126137169
0	22499	243	142.44034059993
0	22505	243.1	142.48926598475
0	22511	243.2	142.5387601145
0	22517	243.3	142.58801093875
0	22523	243.4	142.63657384966
0	22544	243.5	142.68608677527
0	22550	243.6	142.73573305515
0	22556	243.7	142.78557847527
0	22577	243.8	142.83434548663
0	22583	243.9	142.8826241328
0	22589	244	142.93166318547
0	22595	244.1	142.98053533412
0	22601	244.2	143.0299764143
0	22607	244.3	143.07948329732
0	22613	244.4	143.12808852518
0	22634	244.5	143.17662496834
0	22640	244.6	143.22494329974
0	22646	244.7	143.27357948899
0	22667	244.8	143.32272478422
0	22673	244.9	143.37251732409
0	22679	245	143.42157925683
0	22685	245.1	143.47055950422
0	22720	245.2	143.51914415545
0	22726	245.3	143.56854107578
0	22732	245.4	143.61743548512
0	22753	245.5	143.66651008442
0	22759	245.6	143.71582408926
0	22765	245.7	143.76469471169
0	22786	245.8	143.81365442086
0	22792	245.9	143.86345999836
0	22798	246	143.91283126376
0	22804	246.1	143.96133775846
0	22810	246.2	144.00969292033
0	22816	246.3	144.05790421163
0	22822	246.4	144.10573219373
0	22843	246.5	144.15346609763
0	22849	246.6	144.20092802449
0	22855	246.7	144.24878832624
0	22876	246.8	144.29704841099
0	22882	246.9	144.34487294801
0	22888	247	144.39256124455
0	22894	247.1	144.44054256792
0	22900	247.2	144.48878949635
0	22906	247.3	144.53801153864
0	22912	247.4	144.58766693825
0	22933	247.5	144.63695998497
0	22939	247.6	144.68651928686
0	22945	247.7	144.73504656272
0	22966	247.8	144.78440055526
0	22972	247.9	144.83364221827
0	22978	248	144.88362734937
0	22984	248.1	144.9332185718
0	22990	248.2	144.9828819255
0	22996	248.3	145.0319742915
0	23002	248.4	145.08064346309
0	23023	248.5	145.12946296942
0	23029	248.6	145.17831632194
0	23035	248.7	145.22774978938
0	23056	248.8	145.27728648964
0	23062	248.9	145.32653798179
0	23068	249	145.37568514229
0	23074	249.1	145.4248656489
0	23080	249.2	145.47447557939
0	23086	249.3	145.52425661931
0	23092	249.4	145.57370406077
0	23113	249.5	145.62252788155
0	23119	249.6	145.67145750279
0	23125	249.7	145.72111431447
0	23146	249.8	145.77076448786
0	23152	249.9	145.81940819952
0	23158	250	145.86845762942
0	23164	250.1	145.91717707807
0	23199	250.2	145.96543032008
0	23205	250.3	146.01414676114
0	23211	250.4	146.06384382567
0	23232	250.5	146.11275214255
0	23238	250.6	146.16193230222
0	23244	250.7	146.21060116951
0	23265	250.8	146.26001619316
0	23271	250.9	146.30965132183
0	23277	251	146.35894385923
0	23283	251.1	146.40874019554
0	23289	251.2	146.45819969454
0	23295	251.3	146.50817634896
0	23301	251.4	146.55697367831
0	23322	251.5	146.60661995154
0	23328	251.6	146.65572616462
0	23334	251.7	146.70533281765
0	23355	251.8	146.75528779519
0	23361	251.9	146.80512325246
0	23367	252	146.85407442971
0	23373	252.1	146.90268901348
0	23379	252.2	146.95222158064
0	23385	252.3	147.00179942567
0	23391	252.4	147.05120177811
0	23412	252.5	147.09973375419
0	23418	252.6	147.14860172834
0	23424	252.7	147.19723241118
0	23445	252.8	147.2464414142
0	23451	252.9	147.29573915963
0	23457	253	147.34450036717
0	23463	253.1	147.39310853658
0	23469	253.2	147.44235885695
0	23475	253.3	147.49197978072
0	23481	253.4	147.54115707124
0	23502	253.5	147.58975004873
0	23508	253.6	147.63916313432
0	23514	253.7	147.68800504135
0	23535	253.8	147.73674054756
0	23541	253.9	147.78519989029
0	23547	254	147.83332543247
0	23553	254.1	147.88112583645
0	23559	254.2	147.92857486659
0	23565	254.3	147.97555283946
0	23571	254.4	148.02303216802
0	23592	254.5	148.0701179796
0	23598	254.6	148.1167824507
0	23604	254.7	148.16347464839
0	23625	254.8	148.21016995996
0	23631	254.9	148.25732743371
0	23637	255	148.30436695157
0	23643	255.1	148.351502628
0	23678	255.2	148.39845882596
0	23684	255.3	148.44618475351
0	23690	255.4	148.49368879207
0	23711	255.5	148.54110775821
0	23717	255.6	148.58870780639
0	23723	255.7	148.63691827981
0	23744	255.8	148.68598224191
0	23750	255.9	148.73525499194
0	23756	256	148.78503805959
0	23762	256.1	148.83389539985
0	23768	256.2	148.88236590171
0	23774	256.3	148.93060592162
0	23780	256.4	148.97935025316
0	23801	256.5	149.02887557819
0	23807	256.6	149.07886370831
0	23813	256.7	149.12786822111
0	23834	256.8	149.17758680299
0	23840	256.9	149.2265119715
0	23846	257	149.27557399079
0	23852	257.1	149.32486896457
0	23858	257.2	149.3737176557
0	23864	257.3	149.4220947475
0	23870	257.4	149.47127894809
0	23891	257.5	149.52045317005
0	23897	257.6	149.56998333572
0	23903	257.7	149.61994140266
0	23924	257.8	149.66989738325
0	23930	257.9	149.71903095024
0	23936	258	149.76890657707
0	23942	258.1	149.81884068468
0	23948	258.2	149.86858136688
0	23954	258.3	149.91789156986
0	23960	258.4	149.96714041837
0	23981	258.5	150.0157675186
0	23987	258.6	150.06476511505
0	23993	258.7	150.11460104327
0	24014	258.8	150.16425466938
0	24020	258.9	150.21283655636
0	24026	259	150.26152571527
0	24032	259.1	150.31068186026
0	24038	259.2	150.35934279298
0	24044	259.3	150.4085528644
0	24050	259.4	150.45723122236
0	24071	259.5	150.50672787972
0	24077	259.6	150.55532053569
0	24083	259.7	150.60350666212
0	24104	259.8	150.65217488378
0	24110	259.9	150.70181678231
0	24116	260	150.75128722015
0	24122	260.1	150.80101600363
0	24157	260.2	150.85061690299
0	24163	260.3	150.89967837867
0	24169	260.4	150.94901373139
0	24190	260.5	150.99790926235
0	24196	260.6	151.04684923776
0	24202	260.7	151.09633837736
0	24223	260.8	151.14585256255
0	24229	260.9	151.19465534294
0	24235	261	151.24365987875
0	24241	261.1	151.29346880786
0	24247	261.2	151.34258872319
0	24253	261.3	151.39238175478
0	24259	261.4	151.44107869253
0	24280	261.5	151.49058172499
0	24286	261.6	151.53957761282
0	24292	261.7	151.58822828508
0	24313	261.8	151.63773177205
0	24319	261.9	151.68693642378
0	24325	262	151.73549928747
0	24331	262.1	151.78464523699
0	24337	262.2	151.83422363508
0	24343	262.3	151.88351855649
0	24349	262.4	151.93209700155
0	24370	262.5	151.98047392608
0	24376	262.6	152.02944407217
0	24382	262.7	152.07906684021
0	24403	262.8	152.12876891509
0	24409	262.9	152.17812432684
0	24415	263	152.22691246833
0	24421	263.1	152.27647215651
0	24427	263.2	152.32554656698
0	24433	263.3	152.3748381314
0	24439	263.4	152.42386865019
0	24460	263.5	152.47326342239
0	24466	263.6	152.52212368908
0	24472	263.7	152.57150244448
0	24493	263.8	152.62041919339
0	24499	263.9	152.66889645474
0	24505	264	152.71750485346
0	24511	264.1	152.76616141118
0	24517	264.2	152.81503076709
0	24523	264.3	152.86417119744
0	24529	264.4	152.91391837721
0	24550	264.5	152.96288705379
0	24556	264.6	153.01194647256
0	24562	264.7	153.06111714393
0	24583	264.8	153.11065750347
0	24589	264.9	153.16006576636
0	24595	265	153.20941597557
0	24601	265.1	153.25842974793
0	24636	265.2	153.30734090749
0	24642	265.3	153.35678263688
0	24648	265.4	153.40586053214
0	24669	265.5	153.45530497074
0	24675	265.6	153.50457715324
0	24681	265.7	153.55445427699
0	24702	265.8	153.60358626056
0	24708	265.9	153.65224159738
0	24714	266	153.70046682618
0	24720	266.1	153.74919010227
0	24726	266.2	153.79865818922
0	24732	266.3	153.84719322832
0	24738	266.4	153.89553320992
0	24759	266.5	153.94443342683
0	24765	266.6	153.99432690868
0	24771	266.7	154.04393060227
0	24792	266.8	154.09249818436
0	24798	266.9	154.14135436627
0	24804	267	154.19076907714
0	24810	267.1	154.24025548807
0	24816	267.2	154.28991169281
0	24822	267.3	154.33906373621
0	24828	267.4	154.38873798562
0	24849	267.5	154.43769414829
0	24855	267.6	154.48694116629
0	24861	267.7	154.53670265158
0	24882	267.8	154.58522004206
0	24888	267.9	154.6341408379
0	24894	268	154.68347747423
0	24900	268.1	154.73281319406
0	24906	268.2	154.78248683741
0	24912	268.3	154.83104259645
0	24918	268.4	154.87996160692
0	24939	268.5	154.9290013723
0	24945	268.6	154.97849254107
0	24951	268.7	155.02777170453
0	24972	268.8	155.0764155689
0	24978	268.9	155.125808013
0	24984	269	155.17461791061
0	24990	269.1	155.22373460362
0	24996	269.2	155.27334919183
0	25002	269.3	155.32231948719
0	25008	269.4	155.37192328368
0	25029	269.5	155.42169322201
0	25035	269.6	155.47119798778
0	25041	269.7	155.52075866339
0	25062	269.8	155.56966310874
0	25068	269.9	155.61841854697
0	25074	270	155.66801523746
0	25080	270.1	155.71686341723
0	25115	270.2	155.7663267444
0	25121	270.3	155.81598691009
0	25127	270.4	155.86492828154
0	25148	270.5	155.91355902454
0	25154	270.6	155.96227890521
0	25160	270.7	156.01059009013
0	25181	270.8	156.0589031354
0	25187	270.9	156.10693421247
0	25193	271	156.15518435626
0	25199	271.1	156.20310591911
0	25205	271.2	156.25185476005
0	25211	271.3	156.30102399943
0	25217	271.4	156.35058988373
0	25238	271.5	156.40036602996
0	25244	271.6	156.45014190909
0	25250	271.7	156.49947761264
0	25271	271.8	156.54881395934
0	25277	271.9	156.59744789172
0	25283	272	156.64567018868
0	25289	272.1	156.69486387073
0	25295	272.2	156.74447516864
0	25301	272.3	156.79446249943
0	25307	272.4	156.8431403805
0	25328	272.5	156.89202009628
0	25334	272.6	156.94165811021
0	25340	272.7	156.99041240056
0	25361	272.8	157.04005907893
0	25367	272.9	157.08877864169
0	25373	273	157.13847396622
0	25379	273.1	157.18779163069
0	25385	273.2	157.23726068046
0	25391	273.3	157.28628718246
0	25397	273.4	157.33546185844
0	25418	273.5	157.38493114909
0	25424	273.6	157.43345206111
0	25430	273.7	157.48232895746
0	25451	273.8	157.53147880986
0	25457	273.9	157.58053559417
0	25463	274	157.63038685319
0	25469	274.1	157.67906472249
0	25475	274.2	157.72789358787
0	25481	274.3	157.77670891943
0	25487	274.4	157.82514029152
0	25508	274.5	157.8736081521
0	25514	274.6	157.92296841091
0	25520	274.7	157.9728430431
0	25541	274.8	158.0219906962
0	25547	274.9	158.07181569837
0	25553	275	158.12175137164
0	25559	275.1	158.17117587866
0	25594	275.2	158.21970871004
0	25600	275.3	158.26841697604
0	25606	275.4	158.3167980242
0	25627	275.5	158.365499789
0	25633	275.6	158.41380557062
0	25639	275.7	158.46306648042
0	25660	275.8	158.51198730525
0	25666	275.9	158.56047509323
0	25672	276	158.60925853113
0	25678	276.1	158.65866118646
0	25684	276.2	158.70768393013
0	25690	276.3	158.75711096901
0	25696	276.4	158.8066031556
0	25717	276.5	158.8560670738
0	25723	276.6	158.90544956967
0	25729	276.7	158.95477322687
0	25750	276.8	159.00452316988
0	25756	276.9	159.05350875923
0	25762	277	159.10223405146
0	25768	277.1	159.15085790556
0	25774	277.2	159.19985238176
0	25780	277.3	159.24959765339
0	25786	277.4	159.29852992458
0	25807	277.5	159.34838320695
0	25813	277.6	159.3976302874
0	25819	277.7	159.44620559336
0	25840	277.8	159.49525365598
0	25846	277.9	159.544153145
0	25852	278	159.59265057415
0	25858	278.1	159.64197374717
0	25864	278.2	159.69106002094
[...]
9	21508	232.7	1.142958293579
9	21529	232.8	1.1362330977463
9	21535	232.9	1.1280472018796
9	21541	233	1.1286929216577
9	21547	233.1	1.1341769845543
9	21553	233.2	1.1377282910001
9	21559	233.3	1.1373517652651
9	21565	233.4	1.1336559823853
9	21586	233.5	1.126976856671
9	21592	233.6	1.1387396995752
9	21598	233.7	1.1384028564982
9	21619	233.8	1.1326049827101
9	21625	233.9	1.1336578716558
9	21631	234	1.1359139410515
9	21637	234.1	1.1298547954854
9	21643	234.2	1.1283303020954
9	21649	234.3	1.1367481993794
9	21655	234.4	1.1412716393847
9	21676	234.5	1.1349359025025
9	21682	234.6	1.1307535487672
9	21688	234.7	1.1329222254867
9	21709	234.8	1.1288444398655
9	21715	234.9	1.1314161625485
9	21721	235	1.1408724289036
9	21727	235.1	1.1302448909569
9	21762	235.2	1.130010878233
9	21768	235.3	1.1367298255263
9	21774	235.4	1.1351266274261
9	21795	235.5	1.1408086105207
9	21801	235.6	1.1310405599044
9	21807	235.7	1.1267085874167
9	21828	235.8	1.1425841933723
9	21834	235.9	1.1261115179068
9	21840	236	1.1355450151301
9	21846	236.1	1.1379019384683
9	21852	236.2	1.1319343380297
9	21858	236.3	1.1337068409215
9	21864	236.4	1.1317525393821
9	21885	236.5	1.1362372690634
9	21891	236.6	1.13867589414
9	21897	236.7	1.1261607103844
9	21918	236.8	1.1383238761105
9	21924	236.9	1.12708583999
9	21930	237	1.1421370917454
9	21936	237.1	1.1342494029274
9	21942	237.2	1.1331274298781
9	21948	237.3	1.1310103522897
9	21954	237.4	1.1298820557254
9	21975	237.5	1.1426748455536
9	21981	237.6	1.1327574711581
9	21987	237.7	1.1302537701209
9	22008	237.8	1.1354326353578
9	22014	237.9	1.133999182606
9	22020	238	1.1293093183686
9	22026	238.1	1.1324653199857
9	22032	238.2	1.1391806830966
9	22038	238.3	1.1313507906573
9	22044	238.4	1.1323963537819
9	22065	238.5	1.1372522585389
9	22071	238.6	1.1366732770308
9	22077	238.7	1.1297337563438
9	22098	238.8	1.1344797745374
9	22104	238.9	1.1299515107429
9	22110	239	1.1443278322541
9	22116	239.1	1.1235444371202
9	22122	239.2	1.1383521588494
9	22128	239.3	1.1403730233096
9	22134	239.4	1.1300275950178
9	22155	239.5	1.1292733461021
9	22161	239.6	1.1367104244887
9	22167	239.7	1.1278489097371
9	22188	239.8	1.1405890691495
9	22194	239.9	1.1351226954847
9	22200	240	1.1278674491836
9	22206	240.1	1.1371295833419
9	22241	240.2	1.1322042712182
9	22247	240.3	1.1322796057501
9	22253	240.4	1.1354034754558
9	22274	240.5	1.1369028290631
9	22280	240.6	1.1376485215534
9	22286	240.7	1.1284267353161
9	22307	240.8	1.1299445348736
9	22313	240.9	1.1396472935761
9	22319	241	1.1278729584229
9	22325	241.1	1.138745615594
9	22331	241.2	1.1324355507455
9	22337	241.3	1.1312153643801
9	22343	241.4	1.1370563953892
9	22364	241.5	1.1397844318811
9	22370	241.6	1.1231434478854
9	22376	241.7	1.1428275416335
9	22397	241.8	1.1282687730983
9	22403	241.9	1.136337503536
9	22409	242	1.1342146262882
9	22415	242.1	1.1368296198452
9	22421	242.2	1.1281034856452
9	22427	242.3	1.1414033148643
9	22433	242.4	1.1232867141098
9	22454	242.5	1.135441816727
9	22460	242.6	1.1375792077425
9	22466	242.7	1.135240170519
9	22487	242.8	1.1356475904009
9	22493	242.9	1.1313229625166
9	22499	243	1.1292339909296
9	22505	243.1	1.1412417896856
9	22511	243.2	1.1311993012181
9	22517	243.3	1.1372083535188
9	22523	243.4	1.1327406905142
9	22544	243.5	1.13580290685
9	22550	243.6	1.1242007227676
9	22556	243.7	1.1388472037124
9	22577	243.8	1.1318621490516
9	22583	243.9	1.1417155690062
9	22589	244	1.1307505105875
9	22595	244.1	1.1274690059712
9	22601	244.2	1.1438131371443
9	22607	244.3	1.1330782450867
9	22613	244.4	1.1283565326329
9	22634	244.5	1.1338619680925
9	22640	244.6	1.1311741082652
9	22646	244.7	1.1325295065144
9	22667	244.8	1.1435975529932
9	22673	244.9	1.1325990669925
9	22679	245	1.1319169070044
9	22685	245.1	1.1392710434407
9	22720	245.2	1.1332686022392
9	22726	245.3	1.1321427264484
9	22732	245.4	1.1308605957723
9	22753	245.5	1.1367625527364
9	22759	245.6	1.1263069552191
9	22765	245.7	1.1405882529314
9	22786	245.8	1.1265844420678
9	22792	245.9	1.1330679509763
9	22798	246	1.140182669685
9	22804	246.1	1.136693561028
9	22810	246.2	1.133217508445
9	22816	246.3	1.1280069500985
9	22822	246.4	1.1400273166824
9	22843	246.5	1.1326653684676
9	22849	246.6	1.1327308405758
9	22855	246.7	1.132703849971
9	22876	246.8	1.1286784934773
9	22882	246.9	1.1431815026565
9	22888	247	1.1325105090196
9	22894	247.1	1.1350897284874
9	22900	247.2	1.1327820677273
9	22906	247.3	1.1372132481364
9	22912	247.4	1.1308591738484
9	22933	247.5	1.1274525619147
9	22939	247.6	1.1410456635917
9	22945	247.7	1.1330746381078
9	22966	247.8	1.1269065117994
9	22972	247.9	1.1363456935369
9	22978	248	1.1364058273219
9	22984	248.1	1.1306664124641
9	22990	248.2	1.1419334828394
9	22996	248.3	1.1298325714439
9	23002	248.4	1.1382369254183
9	23023	248.5	1.1326348317618
9	23029	248.6	1.1351654737732
9	23035	248.7	1.1313257381184
9	23056	248.8	1.1337099578338
9	23062	248.9	1.1269867502583
9	23068	249	1.1421928168657
9	23074	249.1	1.1314169873051
9	23080	249.2	1.1297215098344
9	23086	249.3	1.1336873005238
9	23092	249.4	1.1345438224903
9	23113	249.5	1.1395336532929
9	23119	249.6	1.1314211314333
9	23125	249.7	1.1377482923536
9	23146	249.8	1.1340142683052
9	23152	249.9	1.1309653165001
9	23158	250	1.1301804865598
9	23164	250.1	1.1364049527774
9	23199	250.2	1.1294409651652
9	23205	250.3	1.1343910637431
9	23211	250.4	1.1437417962589
9	23232	250.5	1.1274618862849
9	23238	250.6	1.1333523086087
9	23244	250.7	1.1295021109812
9	23265	250.8	1.1454220463797
9	23271	250.9	1.1278201846598
9	23277	251	1.1379486998239
9	23283	251.1	1.1359246462319
9	23289	251.2	1.1274907234704
9	23295	251.3	1.1315621409735
9	23301	251.4	1.1337303971857
9	23322	251.5	1.1430836335708
9	23328	251.6	1.1294331683542
9	23334	251.7	1.1384735203792
9	23355	251.8	1.1315738490864
9	23361	251.9	1.134698057181
9	23367	252	1.1337600137898
9	23373	252.1	1.1324844253989
9	23379	252.2	1.1347368941371
9	23385	252.3	1.1255729299896
9	23391	252.4	1.1412584743286
9	23412	252.5	1.1272880650429
9	23418	252.6	1.142606199911
9	23424	252.7	1.1268482515957
9	23445	252.8	1.1425554633966
9	23451	252.9	1.1291157026257
9	23457	253	1.1396381500491
9	23463	253.1	1.1241996653895
9	23469	253.2	1.1320151478923
9	23475	253.3	1.1451371553147
9	23481	253.4	1.1230528875234
9	23502	253.5	1.1356557831558
9	23508	253.6	1.1389229521856
9	23514	253.7	1.1271852814238
9	23535	253.8	1.141326751415
9	23541	253.9	1.1325828636796
9	23547	254	1.1378441793238
9	23553	254.1	1.1271521435615
9	23559	254.2	1.1416721965998
9	23565	254.3	1.1284640855575
9	23571	254.4	1.1314448033068
9	23592	254.5	1.1320986931003
9	23598	254.6	1.1421239734511
9	23604	254.7	1.1265970599415
9	23625	254.8	1.1342000165574
9	23631	254.9	1.1357617698708
9	23637	255	1.1335505049237
9	23643	255.1	1.1400217580341
9	23678	255.2	1.1277792933738
9	23684	255.3	1.1365654405708
9	23690	255.4	1.1279570575361
9	23711	255.5	1.1406199611461
9	23717	255.6	1.130714489046
9	23723	255.7	1.1357178385964
9	23744	255.8	1.1283844363532
9	23750	255.9	1.1414700596623
9	23756	256	1.1362002804617
9	23762	256.1	1.1258190108675
9	23768	256.2	1.1379445686958
9	23774	256.3	1.1317487478034
9	23780	256.4	1.1408958638968
9	23801	256.5	1.1227290852475
9	23807	256.6	1.1345894530492
9	23813	256.7	1.1368497078725
9	23834	256.8	1.1414332284669
9	23840	256.9	1.1296324241218
9	23846	257	1.1265605565978
9	23852	257.1	1.1373380313081
9	23858	257.2	1.1403037144296
9	23864	257.3	1.1303320098588
9	23870	257.4	1.127683459833
9	23891	257.5	1.1390235205807
9	23897	257.6	1.1402632587211
9	23903	257.7	1.1267493924032
9	23924	257.8	1.1381778374105
9	23930	257.9	1.1361567549363
9	23936	258	1.1303024791779
9	23942	258.1	1.1320075228932
9	23948	258.2	1.1406459541084
9	23954	258.3	1.1274033313574
9	23960	258.4	1.1344552142707
9	23981	258.5	1.1303955169495
9	23987	258.6	1.1383519521132
9	23993	258.7	1.1323162076157
9	24014	258.8	1.1315346801057
9	24020	258.9	1.1318623004608
9	24026	259	1.1401317870521
9	24032	259.1	1.131202771087
9	24038	259.2	1.1326911791091
9	24044	259.3	1.141952501127
9	24050	259.4	1.124763144901
9	24071	259.5	1.1390118395513
9	24077	259.6	1.1303267170659
9	24083	259.7	1.1362739478648
9	24104	259.8	1.1310516693957
9	24110	259.9	1.1335204728979
9	24116	260	1.1404341620597
9	24122	260.1	1.1282159936452
9	24157	260.2	1.1314798487635
9	24163	260.3	1.141402652422
9	24169	260.4	1.1275632498467
9	24190	260.5	1.1353048788026
9	24196	260.6	1.1298724280431
9	24202	260.7	1.1423355399874
9	24223	260.8	1.1353300012896
9	24229	260.9	1.132090627429
9	24235	261	1.1346562179833
9	24241	261.1	1.1278454962264
9	24247	261.2	1.1340590711339
9	24253	261.3	1.1345620613802
9	24259	261.4	1.1394657127516
9	24280	261.5	1.1260718736415
9	24286	261.6	1.1325493783237
9	24292	261.7	1.1389411280767
9	24313	261.8	1.1324171849879
9	24319	261.9	1.1356633308177
9	24325	262	1.1365961947015
9	24331	262.1	1.1339622830265
9	24337	262.2	1.1336535589442
9	24343	262.3	1.1355106867373
9	24349	262.4	1.1252819699819
9	24370	262.5	1.1342323494559
9	24376	262.6	1.1386453374171
9	24382	262.7	1.1350831533812
9	24403	262.8	1.1269167975138
9	24409	262.9	1.1426220052495
9	24415	263	1.1299177382203
9	24421	263.1	1.1401121431245
9	24427	263.2	1.132398194986
9	24433	263.3	1.1289253083697
9	24439	263.4	1.1331201497746
9	24460	263.5	1.1348178225938
9	24466	263.6	1.1302942462646
9	24472	263.7	1.1321894581568
9	24493	263.8	1.1364862801332
9	24499	263.9	1.1374735587412
9	24505	264	1.129358261717
9	24511	264.1	1.1426509315255
9	24517	264.2	1.1271114157865
9	24523	264.3	1.1358479840032
9	24529	264.4	1.1381311995159
9	24550	264.5	1.1242697651764
9	24556	264.6	1.1415619797839
9	24562	264.7	1.1305376464919
9	24583	264.8	1.1305916310106
9	24589	264.9	1.1383228190213
9	24595	265	1.1387832499442
9	24601	265.1	1.125396466616
9	24636	265.2	1.139530866461
9	24642	265.3	1.1262161424726
9	24648	265.4	1.1348793088839
9	24669	265.5	1.1340790465132
9	24675	265.6	1.1399079716085
9	24681	265.7	1.1290083755069
9	24702	265.8	1.1309477028262
9	24708	265.9	1.1393620297839
9	24714	266	1.1345676896185
9	24720	266.1	1.1396184496912
9	24726	266.2	1.1256482424122
9	24732	266.3	1.131842379646
9	24738	266.4	1.1413383594248
9	24759	266.5	1.1331703052946
9	24765	266.6	1.1316749668489
9	24771	266.7	1.1392538730219
9	24792	266.8	1.133876995217
9	24798	266.9	1.1299675613382
9	24804	267	1.1359219857969
9	24810	267.1	1.1322045060335
9	24816	267.2	1.1333347286406
9	24822	267.3	1.1274939808024
9	24828	267.4	1.1340538728191
9	24849	267.5	1.1437315350396
9	24855	267.6	1.1249117821937
9	24861	267.7	1.1437459611877
9	24882	267.8	1.1287880903538
9	24888	267.9	1.1381806792254
9	24894	268	1.131538714086
9	24900	268.1	1.1292918211179
9	24906	268.2	1.1377358144006
9	24912	268.3	1.1292076282169
9	24918	268.4	1.1348310653293
9	24939	268.5	1.1310274982346
9	24945	268.6	1.1387455291559
9	24951	268.7	1.130566549088
9	24972	268.8	1.1397131119998
9	24978	268.9	1.1336912179875
9	24984	269	1.1332834381653
9	24990	269.1	1.1338086861607
9	24996	269.2	1.1377813440962
9	25002	269.3	1.1289218606175
9	25008	269.4	1.1391635940165
9	25029	269.5	1.12431660186
9	25035	269.6	1.1440657350096
9	25041	269.7	1.1292827515526
9	25062	269.8	1.1359709482552
9	25068	269.9	1.1356162728953
9	25074	270	1.1262926491128
9	25080	270.1	1.1346046002833
9	25115	270.2	1.1408972914694
9	25121	270.3	1.128033952451
9	25127	270.4	1.1318537352861
9	25148	270.5	1.1339860181306
9	25154	270.6	1.1422785058882
9	25160	270.7	1.1267499355638
9	25181	270.8	1.1334232535282
9	25187	270.9	1.1319844017229
9	25193	271	1.138109929388
9	25199	271.1	1.1344693332984
9	25205	271.2	1.1277090824964
9	25211	271.3	1.1357460805501
9	25217	271.4	1.1366948787889
9	25238	271.5	1.1367024270083
9	25244	271.6	1.127626876149
9	25250	271.7	1.1385658567963
9	25271	271.8	1.138449821154
9	25277	271.9	1.1295867600309
9	25283	272	1.1287723370456
9	25289	272.1	1.138974634217
9	25295	272.2	1.1393520074281
9	25301	272.3	1.1267286562526
9	25307	272.4	1.1291113700261
9	25328	272.5	1.1358534828001
9	25334	272.6	1.13621374521
9	25340	272.7	1.1301745153568
9	25361	272.8	1.1349336008306
9	25367	272.9	1.1376478694159
9	25373	273	1.1327435289909
9	25379	273.1	1.1321150850996
9	25385	273.2	1.1323587837658
9	25391	273.3	1.143590800811
9	25397	273.4	1.1252557067779
9	25418	273.5	1.1378240357354
9	25424	273.6	1.1312760878469
9	25430	273.7	1.1325300957564
9	25451	273.8	1.1365544799746
9	25457	273.9	1.1386313100012
9	25463	274	1.1309337897301
9	25469	274.1	1.1380967265654
9	25475	274.2	1.1265205413146
9	25481	274.3	1.1305455168467
9	25487	274.4	1.1356263697513
9	25508	274.5	1.138791027399
9	25514	274.6	1.1315328880027
9	25520	274.7	1.1373391517766
9	25541	274.8	1.131047077448
9	25547	274.9	1.1368646927099
9	25553	275	1.1285796859355
9	25559	275.1	1.1397480733608
9	25594	275.2	1.1253381855918
9	25600	275.3	1.1374035448247
9	25606	275.4	1.1412361983645
9	25627	275.5	1.1348250910942
9	25633	275.6	1.1220023472576
9	25639	275.7	1.1433410729053
9	25660	275.8	1.1328781974574
9	25666	275.9	1.1352806256246
9	25672	276	1.1251719367687
9	25678	276.1	1.1371000587389
9	25684	276.2	1.1356488401027
9	25690	276.3	1.1332274758107
9	25696	276.4	1.1368489424559
9	25717	276.5	1.1303082655358
9	25723	276.6	1.1362537921757
9	25729	276.7	1.1366802064681
9	25750	276.8	1.1283753360153
9	25756	276.9	1.1373327863269
9	25762	277	1.1288748292521
9	25768	277.1	1.1383484081312
9	25774	277.2	1.1327782245528
9	25780	277.3	1.1304398210267
9	25786	277.4	1.1379705687497
9	25807	277.5	1.1275394530366
9	25813	277.6	1.1358023183218
9	25819	277.7	1.1333364757713
9	25840	277.8	1.1321637818473
9	25846	277.9	1.1406998356768
9	25852	278	1.131573735983
9	25858	278.1	1.1324476456049
9	25864	278.2	1.1340455487039
9	25870	278.3	1.1303676736225
9	25876	278.4	1.1419543531014
9	25897	278.5	1.1339546999982
9	25903	278.6	1.1262756688336
9	25909	278.7	1.1351528721454
9	25930	278.8	1.141185286635
9	25936	278.9	1.1294879251649
9	25942	279	1.1316854751571
9	25948	279.1	1.1386599503182
9	25954	279.2	1.1329500012103
9	25960	279.3	1.1321739134482
9	25966	279.4	1.1351985742169
9	25987	279.5	1.1303741553595
9	25993	279.6	1.1431302078929
9	25999	279.7	1.1288007264233
9	26020	279.8	1.1351300361921
9	26026	279.9	1.1306045690716
9	26032	280	1.1317780148675
9	26038	280.1	1.1425146700671
9	26073	280.2	1.133071239935
9	26079	280.3	1.1277819113563
9	26085	280.4	1.1329043699005
9	26106	280.5	1.1356360220555
9	26112	280.6	1.128995290095
9	26118	280.7	1.1396563539929
9	26139	280.8	1.1384299652172
9	26145	280.9	1.1272634946295
9	26151	281	1.1348432715169
9	26157	281.1	1.1339850968326
9	26163	281.2	1.1343990330347
9	26169	281.3	1.1290283213591
9	26175	281.4	1.1438037110456
9	26196	281.5	1.1347695063297
9	26202	281.6	1.1330850159483
9	26208	281.7	1.1329235404036
9	26229	281.8	1.1297019559662
9	26235	281.9	1.1336038481237
9	26241	282	1.138574759676
9	26247	282.1	1.1308331514768
9	26253	282.2	1.1339841596067
9	26259	282.3	1.1342583547553
9	26265	282.4	1.1295884964571
9	26286	282.5	1.1378647738435
9	26292	282.6	1.1303631856398
9	26298	282.7	1.1411595808954
9	26319	282.8	1.1295173096206
9	26325	282.9	1.1302712027625
9	26331	283	1.1418069872434
9	26337	283.1	1.1304783027766
9	26343	283.2	1.1321213776609
9	26349	283.3	1.1391362620787
9	26355	283.4	1.1269777952618
9	26376	283.5	1.1422476022854
9	26382	283.6	1.1234197973441
9	26388	283.7	1.1396136336616
9	26409	283.8	1.1355502554635
9	26415	283.9	1.1367117037431
9	26421	284	1.1301502234535
9	26427	284.1	1.1311110865902
9	26433	284.2	1.1408850951682
9	26439	284.3	1.1314472530589
9	26445	284.4	1.1274509475435
9	26466	284.5	1.1360773549947
9	26472	284.6	1.139309663021
9	26478	284.7	1.1345998820003
9	26499	284.8	1.1248966120416
9	26505	284.9	1.1413906309013
9	26511	285	1.1353357978394
9	26517	285.1	1.1239596209625
9	26552	285.2	1.1422545122197
9	26558	285.3	1.1362883836027
9	26564	285.4	1.1298849228952
9	26585	285.5	1.1342491723963
9	26591	285.6	1.1278597111831
9	26597	285.7	1.143591879106
9	26618	285.8	1.134605550079
9	26624	285.9	1.1340644722209
9	26630	286	1.1240952439517
9	26636	286.1	1.1393469617196
9	26642	286.2	1.1376480366984
9	26648	286.3	1.1285672643438
9	26654	286.4	1.1345418380135
9	26675	286.5	1.1381070391894
9	26681	286.6	1.1290232266466
9	26687	286.7	1.1371124598051
9	26708	286.8	1.1352379599858
9	26714	286.9	1.1306404818577
9	26720	287	1.1366112332101
9	26726	287.1	1.1348581001228
9	26732	287.2	1.1259221176386
9	26738	287.3	1.1427528391902
9	26744	287.4	1.1325002683973
9	26765	287.5	1.1326829727021
9	26771	287.6	1.1353475625878
9	26777	287.7	1.1347848380455
9	26798	287.8	1.1271099278859
9	26804	287.9	1.1392652115662
9	26810	288	1.1366801862884
9	26816	288.1	1.1287640853191
9	26822	288.2	1.1390640122674
9	26828	288.3	1.1311828513744
9	26834	288.4	1.1274990785585
9	26855	288.5	1.1400852194984
9	26861	288.6	1.1306927948206
9	26867	288.7	1.1352888141301
9	26888	288.8	1.1385941570648
9	26894	288.9	1.1277362755178
9	26900	289	1.1312667779328
9	26906	289.1	1.1432613924201
9	26912	289.2	1.1259287882231
9	26918	289.3	1.1345523594359
9	26924	289.4	1.131623520365
9	26945	289.5	1.143251083659
9	26951	289.6	1.1315694004692
9	26957	289.7	1.1291785853248
9	26978	289.8	1.1422182389827
9	26984	289.9	1.1253226045976
9	26990	290	1.1322496639432
9	26996	290.1	1.138744681064
9	27031	290.2	1.134148380815
9	27037	290.3	1.1358646864401
9	27043	290.4	1.1374234498533
9	27064	290.5	1.1318656016574
9	27070	290.6	1.1242831871432
9	27076	290.7	1.1350456128487
9	27097	290.8	1.1412036314148
9	27103	290.9	1.125426131539
9	27109	291	1.1410833265853
9	27115	291.1	1.1348277911485
9	27121	291.2	1.1357969674
9	27127	291.3	1.1248356215071
9	27133	291.4	1.1326462149916
9	27154	291.5	1.141869285794
9	27160	291.6	1.1293244480829
9	27166	291.7	1.138375749134
9	27187	291.8	1.1368502673493
9	27193	291.9	1.1305022664753
9	27199	292	1.1319717356901
9	27205	292.1	1.1392234798545
9	27211	292.2	1.125495526897
9	27217	292.3	1.1377197739374
9	27223	292.4	1.1371723755322
9	27244	292.5	1.1295779519533
9	27250	292.6	1.1313706470816
9	27256	292.7	1.1395474117256
9	27277	292.8	1.1293509614385
9	27283	292.9	1.1371937269647
9	27289	293	1.1273292973937
9	27295	293.1	1.1360502290829
9	27301	293.2	1.1389195930445
9	27307	293.3	1.1382016906471
9	27313	293.4	1.1262060380959
9	27334	293.5	1.1395527931722
9	27340	293.6	1.1349861518313
9	27346	293.7	1.1241040317323
9	27367	293.8	1.1328434428667
9	27373	293.9	1.142750906227
9	27379	294	1.1336039341616
9	27385	294.1	1.1356945984656
9	27391	294.2	1.1304157461527
9	27397	294.3	1.1288801288303
9	27403	294.4	1.1357451487295
9	27424	294.5	1.1320070915564
9	27430	294.6	1.1414322401545
9	27436	294.7	1.127818252538
9	27457	294.8	1.1314632072655
9	27463	294.9	1.141629570349
9	27469	295	1.1289347096727
9	27475	295.1	1.1374044466843
9	27510	295.2	1.1353143088725
9	27516	295.3	1.1256351714054
9	27522	295.4	1.1413938831185
9	27543	295.5	1.1369746294986
9	27549	295.6	1.1305872048104
9	27555	295.7	1.1332096315567
9	27576	295.8	1.130153757028
9	27582	295.9	1.1313355966237
9	27588	296	1.1353116113531
9	27594	296.1	1.132335072838
9	27600	296.2	1.1393432269363
9	27606	296.3	1.1308831109235
9	27612	296.4	1.1388954090314
9	27633	296.5	1.1369794374181
9	27639	296.6	1.1304156215965
9	27645	296.7	1.1298443896376
9	27666	296.8	1.1390715473494
9	27672	296.9	1.126766489497
9	27678	297	1.134587206531
9	27684	297.1	1.1412005017352
9	27690	297.2	1.1323342606012
9	27696	297.3	1.1278728935946
9	27702	297.4	1.1409849719756
9	27723	297.5	1.1329220045524
9	27729	297.6	1.1338286130071
9	27735	297.7	1.1283143912103
9	27756	297.8	1.1433131817916
9	27762	297.9	1.1336536367084
9	27768	298	1.1278412518815
9	27774	298.1	1.1361074942752
9	27780	298.2	1.1310207033008
9	27786	298.3	1.1383947018355
9	27792	298.4	1.1260835112245
9	27813	298.5	1.135527812555
9	27819	298.6	1.1424405098406
9	27825	298.7	1.1252584352293
9	27846	298.8	1.1314691424365
9	27852	298.9	1.1339972283028
9	27858	299	1.136233334759
9	27864	299.1	1.1414268896044
9	27870	299.2	1.1284636533201
9	27876	299.3	1.1374909668933
9	27882	299.4	1.125557192742
9	27903	299.5	1.1367866051026
9	27909	299.6	1.135106765061
9	27915	299.7	1.1327938017965
9	27936	299.8	1.1369909892089
9	27942	299.9	1.1347317928193
