version 2
run SingeLaneMerge-0-20180821-22:49:40-27581
attr configname SingeLaneMerge
attr datetime 20180821-22:49:40
attr experiment SingeLaneMerge
attr inifile omnetpp.ini
attr iterationvars "$nCars=8, $platoonSize=8, $nLanes=1, $ploegH=0.5, $controller=0, $sController=\"ACC\", $headway=0.3, $leaderHeadway=1.2, $leaderSpeed=100, $beaconInterval=0.1, $priority=4, $packetSize=200, $0=2, $1=0.3"
attr iterationvarsf nCars=8,platoonSize=8,nLanes=1,ploegH=0.5,controller=0,sController=ACC,headway=0.3,leaderHeadway=1.2,leaderSpeed=100,beaconInterval=0.1,priority=4,packetSize=200,2,0.3-
attr measurement "$nCars=8, $platoonSize=8, $nLanes=1, $ploegH=0.5, $controller=0, $sController=\"ACC\", $headway=0.3, $leaderHeadway=1.2, $leaderSpeed=100, $beaconInterval=0.1, $priority=4, $packetSize=200, $0=2, $1=0.3"
attr network veinsbdi.simulations.simpleLaneMerge.LaneMergeScenario
attr processid 27581
attr repetition 0
attr replication #0
attr resultdir results
attr runnumber 0
attr seedset 0
itervar beaconInterval 0.1
itervar controller 0
itervar headway 0.3
itervar leaderHeadway 1.2
itervar leaderSpeed 100
itervar nCars 8
itervar nLanes 1
itervar packetSize 200
itervar platoonSize 8
itervar ploegH 0.5
itervar priority 4
itervar sController "\"ACC\""
param *.manager.useGui true
param *.node[*].scenario_type "\"veinsbdi.scenarios.LaneMergeScenario\""
param *.playgroundSizeX 65000m
param *.playgroundSizeY 25000m
param *.playgroundSizeZ 50m
param **.debug false
param **.coreDebug false
param *.annotations.draw false
param *.obstacles.debug false
param *.world.useTorus false
param *.world.use2D false
param *.*.updateInterval 0.01s
param *.manager.host "\"localhost\""
param *.manager.moduleType "\"vtypeauto=org.car2x.veins.modules.application.platooning.PlatoonCar vtypemerger=org.car2x.veins.modules.application.platooning.PlatoonCar\""
param *.manager.moduleName "\"vtypeauto=node vtypemerger=merger\""
param *.manager.moduleDisplayString "\"\""
param *.manager.autoShutdown true
param *.manager.margin 25
param *.connectionManager.sendDirect true
param *.connectionManager.maxInterfDist 2600m
param *.connectionManager.drawMaxIntfDist false
param *.**.nic.mac1609_4.useServiceChannel false
param *.**.nic.mac1609_4.txPower 100mW
param *.**.nic.mac1609_4.bitrate 6Mbps
param *.**.nic.phy80211p.sensitivity -94dBm
param *.**.nic.phy80211p.maxTXPower 100mW
param *.**.nic.phy80211p.useThermalNoise true
param *.**.nic.phy80211p.thermalNoise -95dBm
param *.**.nic.phy80211p.decider "xmldoc(\"config.xml\")"
param *.**.nic.phy80211p.analogueModels "xmldoc(\"config.xml\")"
param *.**.nic.phy80211p.usePropagationDelay true
param *.node[*].mobility.x 0
param *.node[*].mobility.y 0
param *.node[*].mobility.z 1.895
param **.seed 0
param *.manager.configFile "\"./sumocfg/slm.sumo.cfg\""
param **.numberOfCars 8
param **.numberOfCarsPerPlatoon 8
param **.numberOfLanes 1
param *.node[*].helper_type "\"LocalPlatoonPositionHelper\""
param *.node[*].scenario.caccC1 0.5
param *.node[*].scenario.caccXi 1
param *.node[*].scenario.caccOmegaN "0.2 Hz"
param *.node[*].scenario.engineTau "0.5 s"
param *.node[*].scenario.ploegH 0.5s
param *.node[*].scenario.ploegKp 0.2
param *.node[*].scenario.ploegKd 0.7
param *.node[*].scenario.useRealisticEngine false
param *.node[*].scenario.useControllerAcceleration true
param **.numericController 0
param *.node[*].scenario.controller "\"ACC\""
param **.headway 0.3s
param *.node[*].scenario.accHeadway 0.3s
param *.node[*].scenario.leaderHeadway 1.2s
param *.node[*].scenario.leaderSpeed 100kmph
param *.node[*].appl_type "\"GeneralPlatooningApp\""
param *.node[*].appl.joinManeuver "\"JoinAtBack\""
param *.node[*].protocol_type "\"SimplePlatooningBeaconing\""
param *.node[*].prot.beaconingInterval 0.1s
param *.node[*].prot.priority 4
param *.node[*].prot.packetSize 200
param *.node[*].unicast.packetLossRate 0
param **.traffic_type "\"veinsbdi.traffic.LaneMergeTrafficManager\""
param **.traffic.platoonInsertTime "1 s"
param **.traffic.platoonInsertSpeed 100kmph
param **.traffic.nCars 8
param **.traffic.platoonSize 8
param **.traffic.nLanes 1
param **.traffic.platooningVType "\"vtypeauto\""
param **.traffic.platoonInsertDistance 2m
param **.traffic.platoonInsertHeadway 0.3s
param **.traffic.platoonLeaderHeadway 1.2s

vector 0 LaneMergeScenario.node[0].appl distance ETV
vector 1 LaneMergeScenario.node[0].appl relativeSpeed ETV
vector 2 LaneMergeScenario.node[0].appl nodeId ETV
vector 3 LaneMergeScenario.node[0].appl acceleration ETV
vector 4 LaneMergeScenario.node[0].appl controllerAcceleration ETV
vector 5 LaneMergeScenario.node[0].appl speed ETV
vector 6 LaneMergeScenario.node[0].appl posx ETV
vector 7 LaneMergeScenario.node[0].appl posy ETV
vector 8 LaneMergeScenario.node[1].appl distance ETV
vector 9 LaneMergeScenario.node[1].appl relativeSpeed ETV
vector 10 LaneMergeScenario.node[1].appl nodeId ETV
vector 11 LaneMergeScenario.node[1].appl acceleration ETV
vector 12 LaneMergeScenario.node[1].appl controllerAcceleration ETV
vector 13 LaneMergeScenario.node[1].appl speed ETV
vector 14 LaneMergeScenario.node[1].appl posx ETV
vector 15 LaneMergeScenario.node[1].appl posy ETV
vector 16 LaneMergeScenario.node[2].appl distance ETV
vector 17 LaneMergeScenario.node[2].appl relativeSpeed ETV
vector 18 LaneMergeScenario.node[2].appl nodeId ETV
vector 19 LaneMergeScenario.node[2].appl acceleration ETV
vector 20 LaneMergeScenario.node[2].appl controllerAcceleration ETV
vector 21 LaneMergeScenario.node[2].appl speed ETV
vector 22 LaneMergeScenario.node[2].appl posx ETV
vector 23 LaneMergeScenario.node[2].appl posy ETV
vector 24 LaneMergeScenario.node[3].appl distance ETV
vector 25 LaneMergeScenario.node[3].appl relativeSpeed ETV
vector 26 LaneMergeScenario.node[3].appl nodeId ETV
vector 27 LaneMergeScenario.node[3].appl acceleration ETV
vector 28 LaneMergeScenario.node[3].appl controllerAcceleration ETV
vector 29 LaneMergeScenario.node[3].appl speed ETV
vector 30 LaneMergeScenario.node[3].appl posx ETV
vector 31 LaneMergeScenario.node[3].appl posy ETV
vector 32 LaneMergeScenario.node[4].appl distance ETV
vector 33 LaneMergeScenario.node[4].appl relativeSpeed ETV
vector 34 LaneMergeScenario.node[4].appl nodeId ETV
vector 35 LaneMergeScenario.node[4].appl acceleration ETV
vector 36 LaneMergeScenario.node[4].appl controllerAcceleration ETV
vector 37 LaneMergeScenario.node[4].appl speed ETV
vector 38 LaneMergeScenario.node[4].appl posx ETV
vector 39 LaneMergeScenario.node[4].appl posy ETV
vector 40 LaneMergeScenario.node[5].appl distance ETV
vector 41 LaneMergeScenario.node[5].appl relativeSpeed ETV
vector 42 LaneMergeScenario.node[5].appl nodeId ETV
vector 43 LaneMergeScenario.node[5].appl acceleration ETV
vector 44 LaneMergeScenario.node[5].appl controllerAcceleration ETV
vector 45 LaneMergeScenario.node[5].appl speed ETV
vector 46 LaneMergeScenario.node[5].appl posx ETV
vector 47 LaneMergeScenario.node[5].appl posy ETV
vector 48 LaneMergeScenario.node[6].appl distance ETV
vector 49 LaneMergeScenario.node[6].appl relativeSpeed ETV
vector 50 LaneMergeScenario.node[6].appl nodeId ETV
vector 51 LaneMergeScenario.node[6].appl acceleration ETV
vector 52 LaneMergeScenario.node[6].appl controllerAcceleration ETV
vector 53 LaneMergeScenario.node[6].appl speed ETV
vector 54 LaneMergeScenario.node[6].appl posx ETV
vector 55 LaneMergeScenario.node[6].appl posy ETV
vector 56 LaneMergeScenario.node[7].appl distance ETV
vector 57 LaneMergeScenario.node[7].appl relativeSpeed ETV
vector 58 LaneMergeScenario.node[7].appl nodeId ETV
vector 59 LaneMergeScenario.node[7].appl acceleration ETV
vector 60 LaneMergeScenario.node[7].appl controllerAcceleration ETV
vector 61 LaneMergeScenario.node[7].appl speed ETV
vector 62 LaneMergeScenario.node[7].appl posx ETV
vector 63 LaneMergeScenario.node[7].appl posy ETV
vector 64 LaneMergeScenario.node[3].prot frontDelay ETV
vector 65 LaneMergeScenario.node[3].prot frontDelayId ETV
vector 66 LaneMergeScenario.node[2].prot frontDelay ETV
vector 67 LaneMergeScenario.node[2].prot frontDelayId ETV
vector 68 LaneMergeScenario.node[1].prot leaderDelay ETV
vector 69 LaneMergeScenario.node[1].prot leaderDelayId ETV
vector 70 LaneMergeScenario.node[1].prot frontDelay ETV
vector 71 LaneMergeScenario.node[1].prot frontDelayId ETV
vector 72 LaneMergeScenario.node[2].prot leaderDelay ETV
vector 73 LaneMergeScenario.node[2].prot leaderDelayId ETV
vector 74 LaneMergeScenario.node[3].prot leaderDelay ETV
vector 75 LaneMergeScenario.node[3].prot leaderDelayId ETV
vector 76 LaneMergeScenario.node[4].prot leaderDelay ETV
vector 77 LaneMergeScenario.node[4].prot leaderDelayId ETV
vector 78 LaneMergeScenario.node[5].prot leaderDelay ETV
vector 79 LaneMergeScenario.node[5].prot leaderDelayId ETV
vector 80 LaneMergeScenario.node[6].prot leaderDelay ETV
vector 81 LaneMergeScenario.node[6].prot leaderDelayId ETV
vector 82 LaneMergeScenario.node[7].prot leaderDelay ETV
vector 83 LaneMergeScenario.node[7].prot leaderDelayId ETV
vector 84 LaneMergeScenario.node[0].prot nodeId ETV
vector 85 LaneMergeScenario.node[0].prot busyTime ETV
vector 86 LaneMergeScenario.node[0].prot collisions ETV
vector 87 LaneMergeScenario.node[1].prot nodeId ETV
vector 88 LaneMergeScenario.node[1].prot busyTime ETV
vector 89 LaneMergeScenario.node[1].prot collisions ETV
vector 90 LaneMergeScenario.node[2].prot nodeId ETV
vector 91 LaneMergeScenario.node[2].prot busyTime ETV
vector 92 LaneMergeScenario.node[2].prot collisions ETV
vector 93 LaneMergeScenario.node[3].prot nodeId ETV
vector 94 LaneMergeScenario.node[3].prot busyTime ETV
vector 95 LaneMergeScenario.node[3].prot collisions ETV
vector 96 LaneMergeScenario.node[4].prot nodeId ETV
vector 97 LaneMergeScenario.node[4].prot busyTime ETV
vector 98 LaneMergeScenario.node[4].prot collisions ETV
vector 99 LaneMergeScenario.node[5].prot nodeId ETV
vector 100 LaneMergeScenario.node[5].prot busyTime ETV
vector 101 LaneMergeScenario.node[5].prot collisions ETV
vector 102 LaneMergeScenario.node[6].prot nodeId ETV
vector 103 LaneMergeScenario.node[6].prot busyTime ETV
vector 104 LaneMergeScenario.node[6].prot collisions ETV
vector 105 LaneMergeScenario.node[7].prot nodeId ETV
vector 106 LaneMergeScenario.node[7].prot busyTime ETV
vector 107 LaneMergeScenario.node[7].prot collisions ETV
0	233	1.11	-1
0	790	1.21	-1
0	1346	1.31	-1
0	1903	1.41	-1
0	2460	1.51	-1
0	3016	1.61	-1
0	3572	1.71	-1
0	4129	1.81	-1
0	4685	1.91	-1
0	5252	2.01	-1
0	5808	2.11	-1
0	6364	2.21	-1
0	6920	2.31	-1
0	7476	2.41	-1
0	8032	2.51	-1
0	8588	2.61	-1
0	9144	2.71	-1
0	9700	2.81	-1
0	10256	2.91	-1
0	10820	3.01	-1
0	11376	3.11	-1
0	11932	3.21	-1
0	12488	3.31	-1
0	13044	3.41	-1
0	13600	3.51	-1
0	14156	3.61	-1
0	14712	3.71	-1
0	15268	3.81	-1
0	15824	3.91	-1
0	16388	4.01	-1
0	16944	4.11	-1
0	17500	4.21	-1
0	18056	4.31	-1
0	18612	4.41	-1
0	19168	4.51	-1
0	19724	4.61	-1
0	20280	4.71	-1
0	20836	4.81	-1
0	21392	4.91	-1
0	21956	5.01	-1
0	22512	5.11	-1
0	23068	5.21	-1
0	23624	5.31	-1
0	24180	5.41	-1
0	24736	5.51	-1
0	25292	5.61	-1
0	25848	5.71	-1
0	26404	5.81	-1
0	26960	5.91	-1
0	27524	6.01	-1
0	28080	6.11	-1
0	28636	6.21	-1
0	29192	6.31	-1
0	29748	6.41	-1
0	30304	6.51	-1
0	30860	6.61	-1
0	31416	6.71	-1
0	31972	6.81	-1
0	32528	6.91	-1
0	33092	7.01	-1
0	33648	7.11	-1
0	34204	7.21	-1
0	34760	7.31	-1
0	35316	7.41	-1
0	35872	7.51	-1
0	36428	7.61	-1
0	36984	7.71	-1
0	37540	7.81	-1
0	38096	7.91	-1
0	38660	8.01	-1
0	39216	8.11	-1
0	39772	8.21	-1
0	40328	8.31	-1
0	40884	8.41	-1
0	41440	8.51	-1
0	41996	8.61	-1
0	42552	8.71	-1
0	43108	8.81	-1
0	43664	8.91	-1
0	44228	9.01	-1
0	44784	9.11	-1
0	45340	9.21	-1
0	45896	9.31	-1
0	46452	9.41	-1
0	47008	9.51	-1
0	47564	9.61	-1
0	48120	9.71	-1
0	48676	9.81	-1
0	49232	9.91	-1
0	49796	10.01	-1
0	50352	10.11	-1
0	50908	10.21	-1
0	51464	10.31	-1
0	52020	10.41	-1
0	52576	10.51	-1
0	53132	10.61	-1
0	53688	10.71	-1
0	54244	10.81	-1
0	54800	10.91	-1
0	55364	11.01	-1
0	55920	11.11	-1
0	56476	11.21	-1
0	57032	11.31	-1
0	57588	11.41	-1
0	58144	11.51	-1
0	58700	11.61	-1
0	59256	11.71	-1
0	59812	11.81	-1
0	60368	11.91	-1
0	60932	12.01	-1
0	61488	12.11	-1
0	62044	12.21	-1
0	62600	12.31	-1
0	63156	12.41	-1
0	63712	12.51	-1
0	64268	12.61	-1
0	64824	12.71	-1
0	65380	12.81	-1
0	65936	12.91	-1
0	66500	13.01	-1
0	67056	13.11	-1
0	67612	13.21	-1
0	68168	13.31	-1
0	68724	13.41	-1
0	69280	13.51	-1
0	69836	13.61	-1
0	70392	13.71	-1
0	70948	13.81	-1
0	71504	13.91	-1
0	72068	14.01	-1
0	72624	14.11	-1
0	73180	14.21	-1
0	73736	14.31	-1
0	74292	14.41	-1
0	74848	14.51	-1
0	75404	14.61	-1
0	75960	14.71	-1
0	76516	14.81	-1
0	77072	14.91	-1
0	77636	15.01	-1
0	78192	15.11	-1
0	78748	15.21	-1
0	79304	15.31	-1
0	79860	15.41	-1
0	80416	15.51	-1
0	80972	15.61	-1
0	81528	15.71	-1
0	82084	15.81	-1
0	82640	15.91	-1
0	83204	16.01	-1
0	83760	16.11	-1
0	84316	16.21	-1
0	84872	16.31	-1
0	85428	16.41	-1
0	85984	16.51	-1
0	86540	16.61	-1
0	87096	16.71	-1
0	87652	16.81	-1
0	88208	16.91	-1
0	88772	17.01	-1
0	89328	17.11	-1
0	89884	17.21	-1
0	90440	17.31	-1
0	90996	17.41	-1
0	91552	17.51	-1
0	92108	17.61	-1
0	92664	17.71	-1
0	93220	17.81	-1
0	93776	17.91	-1
0	94340	18.01	-1
0	94896	18.11	-1
0	95452	18.21	-1
0	96008	18.31	-1
0	96564	18.41	-1
0	97120	18.51	-1
0	97676	18.61	-1
0	98232	18.71	-1
0	98788	18.81	-1
0	99344	18.91	-1
0	99908	19.01	-1
0	100464	19.11	-1
0	101020	19.21	-1
0	101576	19.31	-1
0	102132	19.41	-1
0	102688	19.51	-1
0	103244	19.61	-1
0	103800	19.71	-1
0	104356	19.81	-1
0	104912	19.91	-1
1	233	1.11	0
1	790	1.21	0
1	1346	1.31	0
1	1903	1.41	0
1	2460	1.51	0
1	3016	1.61	0
1	3572	1.71	0
1	4129	1.81	0
1	4685	1.91	0
1	5252	2.01	0
1	5808	2.11	0
1	6364	2.21	0
1	6920	2.31	0
1	7476	2.41	0
1	8032	2.51	0
1	8588	2.61	0
1	9144	2.71	0
1	9700	2.81	0
1	10256	2.91	0
1	10820	3.01	0
1	11376	3.11	0
1	11932	3.21	0
1	12488	3.31	0
1	13044	3.41	0
1	13600	3.51	0
1	14156	3.61	0
1	14712	3.71	0
1	15268	3.81	0
1	15824	3.91	0
1	16388	4.01	0
1	16944	4.11	0
1	17500	4.21	0
1	18056	4.31	0
1	18612	4.41	0
1	19168	4.51	0
1	19724	4.61	0
1	20280	4.71	0
1	20836	4.81	0
1	21392	4.91	0
1	21956	5.01	0
1	22512	5.11	0
1	23068	5.21	0
1	23624	5.31	0
1	24180	5.41	0
1	24736	5.51	0
1	25292	5.61	0
1	25848	5.71	0
1	26404	5.81	0
1	26960	5.91	0
1	27524	6.01	0
1	28080	6.11	0
1	28636	6.21	0
1	29192	6.31	0
1	29748	6.41	0
1	30304	6.51	0
1	30860	6.61	0
1	31416	6.71	0
1	31972	6.81	0
1	32528	6.91	0
1	33092	7.01	0
1	33648	7.11	0
1	34204	7.21	0
1	34760	7.31	0
1	35316	7.41	0
1	35872	7.51	0
1	36428	7.61	0
1	36984	7.71	0
1	37540	7.81	0
1	38096	7.91	0
1	38660	8.01	0
1	39216	8.11	0
1	39772	8.21	0
1	40328	8.31	0
1	40884	8.41	0
1	41440	8.51	0
1	41996	8.61	0
1	42552	8.71	0
1	43108	8.81	0
1	43664	8.91	0
1	44228	9.01	0
1	44784	9.11	0
1	45340	9.21	0
1	45896	9.31	0
1	46452	9.41	0
1	47008	9.51	0
1	47564	9.61	0
1	48120	9.71	0
1	48676	9.81	0
1	49232	9.91	0
1	49796	10.01	0
1	50352	10.11	0
1	50908	10.21	0
1	51464	10.31	0
1	52020	10.41	0
1	52576	10.51	0
1	53132	10.61	0
1	53688	10.71	0
1	54244	10.81	0
1	54800	10.91	0
1	55364	11.01	0
1	55920	11.11	0
1	56476	11.21	0
1	57032	11.31	0
1	57588	11.41	0
1	58144	11.51	0
1	58700	11.61	0
1	59256	11.71	0
1	59812	11.81	0
1	60368	11.91	0
1	60932	12.01	0
1	61488	12.11	0
1	62044	12.21	0
1	62600	12.31	0
1	63156	12.41	0
1	63712	12.51	0
1	64268	12.61	0
1	64824	12.71	0
1	65380	12.81	0
1	65936	12.91	0
1	66500	13.01	0
1	67056	13.11	0
1	67612	13.21	0
1	68168	13.31	0
1	68724	13.41	0
1	69280	13.51	0
1	69836	13.61	0
1	70392	13.71	0
1	70948	13.81	0
1	71504	13.91	0
1	72068	14.01	0
1	72624	14.11	0
1	73180	14.21	0
1	73736	14.31	0
1	74292	14.41	0
1	74848	14.51	0
1	75404	14.61	0
1	75960	14.71	0
1	76516	14.81	0
1	77072	14.91	0
1	77636	15.01	0
1	78192	15.11	0
1	78748	15.21	0
1	79304	15.31	0
1	79860	15.41	0
1	80416	15.51	0
1	80972	15.61	0
1	81528	15.71	0
1	82084	15.81	0
1	82640	15.91	0
1	83204	16.01	0
1	83760	16.11	0
1	84316	16.21	0
1	84872	16.31	0
1	85428	16.41	0
1	85984	16.51	0
1	86540	16.61	0
1	87096	16.71	0
1	87652	16.81	0
1	88208	16.91	0
1	88772	17.01	0
1	89328	17.11	0
1	89884	17.21	0
1	90440	17.31	0
1	90996	17.41	0
1	91552	17.51	0
1	92108	17.61	0
1	92664	17.71	0
1	93220	17.81	0
1	93776	17.91	0
1	94340	18.01	0
1	94896	18.11	0
1	95452	18.21	0
1	96008	18.31	0
1	96564	18.41	0
1	97120	18.51	0
1	97676	18.61	0
1	98232	18.71	0
1	98788	18.81	0
1	99344	18.91	0
1	99908	19.01	0
1	100464	19.11	0
1	101020	19.21	0
1	101576	19.31	0
1	102132	19.41	0
1	102688	19.51	0
1	103244	19.61	0
1	103800	19.71	0
1	104356	19.81	0
1	104912	19.91	0
2	233	1.11	0
2	790	1.21	0
2	1346	1.31	0
2	1903	1.41	0
2	2460	1.51	0
2	3016	1.61	0
2	3572	1.71	0
2	4129	1.81	0
2	4685	1.91	0
2	5252	2.01	0
2	5808	2.11	0
2	6364	2.21	0
2	6920	2.31	0
2	7476	2.41	0
2	8032	2.51	0
2	8588	2.61	0
2	9144	2.71	0
2	9700	2.81	0
2	10256	2.91	0
2	10820	3.01	0
2	11376	3.11	0
2	11932	3.21	0
2	12488	3.31	0
2	13044	3.41	0
2	13600	3.51	0
2	14156	3.61	0
2	14712	3.71	0
2	15268	3.81	0
2	15824	3.91	0
2	16388	4.01	0
2	16944	4.11	0
2	17500	4.21	0
2	18056	4.31	0
2	18612	4.41	0
2	19168	4.51	0
2	19724	4.61	0
2	20280	4.71	0
2	20836	4.81	0
2	21392	4.91	0
2	21956	5.01	0
2	22512	5.11	0
2	23068	5.21	0
2	23624	5.31	0
2	24180	5.41	0
2	24736	5.51	0
2	25292	5.61	0
2	25848	5.71	0
2	26404	5.81	0
2	26960	5.91	0
2	27524	6.01	0
2	28080	6.11	0
2	28636	6.21	0
2	29192	6.31	0
2	29748	6.41	0
2	30304	6.51	0
2	30860	6.61	0
2	31416	6.71	0
2	31972	6.81	0
2	32528	6.91	0
2	33092	7.01	0
2	33648	7.11	0
2	34204	7.21	0
2	34760	7.31	0
2	35316	7.41	0
2	35872	7.51	0
2	36428	7.61	0
2	36984	7.71	0
2	37540	7.81	0
2	38096	7.91	0
2	38660	8.01	0
2	39216	8.11	0
2	39772	8.21	0
2	40328	8.31	0
2	40884	8.41	0
2	41440	8.51	0
2	41996	8.61	0
2	42552	8.71	0
2	43108	8.81	0
2	43664	8.91	0
2	44228	9.01	0
2	44784	9.11	0
2	45340	9.21	0
2	45896	9.31	0
2	46452	9.41	0
2	47008	9.51	0
2	47564	9.61	0
2	48120	9.71	0
2	48676	9.81	0
2	49232	9.91	0
2	49796	10.01	0
2	50352	10.11	0
2	50908	10.21	0
2	51464	10.31	0
2	52020	10.41	0
2	52576	10.51	0
2	53132	10.61	0
2	53688	10.71	0
2	54244	10.81	0
2	54800	10.91	0
2	55364	11.01	0
2	55920	11.11	0
2	56476	11.21	0
2	57032	11.31	0
2	57588	11.41	0
2	58144	11.51	0
2	58700	11.61	0
2	59256	11.71	0
2	59812	11.81	0
2	60368	11.91	0
2	60932	12.01	0
2	61488	12.11	0
2	62044	12.21	0
2	62600	12.31	0
2	63156	12.41	0
2	63712	12.51	0
2	64268	12.61	0
2	64824	12.71	0
2	65380	12.81	0
2	65936	12.91	0
2	66500	13.01	0
2	67056	13.11	0
2	67612	13.21	0
2	68168	13.31	0
2	68724	13.41	0
2	69280	13.51	0
2	69836	13.61	0
2	70392	13.71	0
2	70948	13.81	0
2	71504	13.91	0
2	72068	14.01	0
2	72624	14.11	0
2	73180	14.21	0
2	73736	14.31	0
2	74292	14.41	0
2	74848	14.51	0
2	75404	14.61	0
2	75960	14.71	0
2	76516	14.81	0
2	77072	14.91	0
2	77636	15.01	0
2	78192	15.11	0
2	78748	15.21	0
2	79304	15.31	0
2	79860	15.41	0
2	80416	15.51	0
2	80972	15.61	0
2	81528	15.71	0
2	82084	15.81	0
2	82640	15.91	0
2	83204	16.01	0
2	83760	16.11	0
2	84316	16.21	0
2	84872	16.31	0
2	85428	16.41	0
2	85984	16.51	0
2	86540	16.61	0
2	87096	16.71	0
2	87652	16.81	0
2	88208	16.91	0
2	88772	17.01	0
2	89328	17.11	0
2	89884	17.21	0
2	90440	17.31	0
2	90996	17.41	0
2	91552	17.51	0
2	92108	17.61	0
2	92664	17.71	0
2	93220	17.81	0
2	93776	17.91	0
2	94340	18.01	0
2	94896	18.11	0
2	95452	18.21	0
2	96008	18.31	0
2	96564	18.41	0
2	97120	18.51	0
2	97676	18.61	0
2	98232	18.71	0
2	98788	18.81	0
2	99344	18.91	0
2	99908	19.01	0
2	100464	19.11	0
2	101020	19.21	0
2	101576	19.31	0
2	102132	19.41	0
2	102688	19.51	0
2	103244	19.61	0
2	103800	19.71	0
2	104356	19.81	0
2	104912	19.91	0
3	233	1.11	-0.000358191
3	790	1.21	-0.000681704
3	1346	1.31	-0.00093487
3	1903	1.41	-0.00112579
3	2460	1.51	-0.00126221
3	3016	1.61	-0.00135149
3	3572	1.71	-0.00140049
3	4129	1.81	-0.00141557
3	4685	1.91	-0.00140255
3	5252	2.01	-0.00136671
3	5808	2.11	-0.0013128
3	6364	2.21	-0.00124502
3	6920	2.31	-0.0011671
3	7476	2.41	-0.00108223
3	8032	2.51	-0.000993208
3	8588	2.61	-0.000902362
3	9144	2.71	-0.000811651
3	9700	2.81	-0.000722679
3	10256	2.91	-0.000636729
3	10820	3.01	-0.0005548
3	11376	3.11	-0.000477639
3	11932	3.21	-0.000405773
3	12488	3.31	-0.00033954
3	13044	3.41	-0.000279116
3	13600	3.51	-0.000224541
3	14156	3.61	-0.000175743
3	14712	3.71	-0.00013256
3	15268	3.81	-9.47571e-05
3	15824	3.91	-6.2046e-05
3	16388	4.01	-3.40986e-05
3	16944	4.11	-1.05605e-05
3	17500	4.21	8.93844e-06
3	18056	4.31	2.4774e-05
3	18612	4.41	3.73203e-05
3	19168	4.51	4.69433e-05
3	19724	4.61	5.39956e-05
3	20280	4.71	5.88124e-05
3	20836	4.81	6.1709e-05
3	21392	4.91	6.29785e-05
3	21956	5.01	6.28903e-05
3	22512	5.11	6.169e-05
3	23068	5.21	5.95988e-05
3	23624	5.31	5.68144e-05
3	24180	5.41	5.35112e-05
3	24736	5.51	4.98416e-05
3	25292	5.61	4.59373e-05
3	25848	5.71	4.19105e-05
3	26404	5.81	3.78555e-05
3	26960	5.91	3.38499e-05
3	27524	6.01	2.99569e-05
3	28080	6.11	2.62259e-05
3	28636	6.21	2.26948e-05
3	29192	6.31	1.93911e-05
3	29748	6.41	1.6333e-05
3	30304	6.51	1.35314e-05
3	30860	6.61	1.09904e-05
3	31416	6.71	8.70882e-06
3	31972	6.81	6.6809e-06
3	32528	6.91	4.89747e-06
3	33092	7.01	3.3466e-06
3	33648	7.11	2.01432e-06
3	34204	7.21	8.85256e-07
3	34760	7.31	-5.68459e-08
3	35316	7.41	-8.28678e-07
3	35872	7.51	-1.44699e-06
3	36428	7.61	-1.92826e-06
3	36984	7.71	-2.28849e-06
3	37540	7.81	-2.54296e-06
3	38096	7.91	-2.7061e-06
3	38660	8.01	-2.79139e-06
3	39216	8.11	-2.8113e-06
3	39772	8.21	-2.77721e-06
3	40328	8.31	-2.69943e-06
3	40884	8.41	-2.58721e-06
3	41440	8.51	-2.44874e-06
3	41996	8.61	-2.29123e-06
3	42552	8.71	-2.12092e-06
3	43108	8.81	-1.94317e-06
3	43664	8.91	-1.7625e-06
3	44228	9.01	-1.58267e-06
3	44784	9.11	-1.40677e-06
3	45340	9.21	-1.23723e-06
3	45896	9.31	-1.07596e-06
3	46452	9.41	-9.24364e-07
3	47008	9.51	-7.83424e-07
3	47564	9.61	-6.53753e-07
3	48120	9.71	-5.35652e-07
3	48676	9.81	-4.2916e-07
3	49232	9.91	-3.34103e-07
3	49796	10.01	-2.5013e-07
3	50352	10.11	-1.76757e-07
3	50908	10.21	-1.13395e-07
3	51464	10.31	-5.93825e-08
3	52020	10.41	-1.40084e-08
3	52576	10.51	2.34657e-08
3	53132	10.61	5.3787e-08
3	53688	10.71	7.76954e-08
3	54244	10.81	9.59155e-08
3	54800	10.91	1.09142e-07
3	55364	11.01	1.18035e-07
3	55920	11.11	1.23212e-07
3	56476	11.21	1.2525e-07
3	57032	11.31	1.24675e-07
3	57588	11.41	1.21968e-07
3	58144	11.51	1.17559e-07
3	58700	11.61	1.11834e-07
3	59256	11.71	1.05132e-07
3	59812	11.81	9.77476e-08
3	60368	11.91	8.99373e-08
3	60932	12.01	8.19171e-08
3	61488	12.11	7.38677e-08
3	62044	12.21	6.59401e-08
3	62600	12.31	5.82538e-08
3	63156	12.41	5.09036e-08
3	63712	12.51	4.39606e-08
3	64268	12.61	3.74765e-08
3	64824	12.71	3.14852e-08
3	65380	12.81	2.60055e-08
3	65936	12.91	2.10438e-08
3	66500	13.01	1.65958e-08
3	67056	13.11	1.26498e-08
3	67612	13.21	9.18554e-09
3	68168	13.31	6.17888e-09
3	68724	13.41	3.60174e-09
3	69280	13.51	1.42322e-09
3	69836	13.61	-3.90088e-10
3	70392	13.71	-1.8705e-09
3	70948	13.81	-3.05107e-09
3	71504	13.91	-3.96518e-09
3	72068	14.01	-4.64375e-09
3	72624	14.11	-5.11768e-09
3	73180	14.21	-5.41434e-09
3	73736	14.31	-5.56071e-09
3	74292	14.41	-5.58096e-09
3	74848	14.51	-5.49747e-09
3	75404	14.61	-5.33085e-09
3	75960	14.71	-5.09743e-09
3	76516	14.81	-4.81464e-09
3	77072	14.91	-4.49667e-09
3	77636	15.01	-4.15525e-09
3	78192	15.11	-3.80034e-09
3	78748	15.21	-3.44151e-09
3	79304	15.31	-3.08518e-09
3	79860	15.41	-2.73772e-09
3	80416	15.51	-2.40306e-09
3	80972	15.61	-2.08544e-09
3	81528	15.71	-1.78773e-09
3	82084	15.81	-1.51132e-09
3	82640	15.91	-1.25766e-09
3	83204	16.01	-1.02673e-09
3	83760	16.11	-8.18901e-10
3	84316	16.21	-6.33804e-10
3	84872	16.31	-4.70735e-10
3	85428	16.41	-3.28271e-10
3	85984	16.51	-2.05702e-10
3	86540	16.61	-1.00897e-10
3	87096	16.71	-1.35003e-11
3	87652	16.81	5.82645e-11
3	88208	16.91	1.16174e-10
3	88772	17.01	1.61648e-10
3	89328	17.11	1.95755e-10
3	89884	17.21	2.20624e-10
3	90440	17.31	2.36966e-10
3	90996	17.41	2.45848e-10
3	91552	17.51	2.4869e-10
3	92108	17.61	2.46914e-10
3	92664	17.71	2.40874e-10
3	93220	17.81	2.31282e-10
3	93776	17.91	2.19913e-10
3	94340	18.01	2.05702e-10
3	94896	18.11	1.91491e-10
3	95452	18.21	1.7657e-10
3	96008	18.31	1.59872e-10
3	96564	18.41	1.44595e-10
3	97120	18.51	1.30385e-10
3	97676	18.61	1.16174e-10
3	98232	18.71	1.01963e-10
3	98788	18.81	8.7752e-11
3	99344	18.91	7.35412e-11
3	99908	19.01	6.21725e-11
3	100464	19.11	5.15143e-11
3	101020	19.21	4.08562e-11
3	101576	19.31	3.16192e-11
3	102132	19.41	2.45137e-11
3	102688	19.51	1.74083e-11
3	103244	19.61	1.03029e-11
3	103800	19.71	6.03961e-12
3	104356	19.81	2.4869e-12
3	104912	19.91	-1.06581e-12
4	233	1.11	-0.00218518
4	790	1.21	-0.00213419
4	1346	1.31	-0.00205408
4	1903	1.41	-0.00195152
4	2460	1.51	-0.00183238
4	3016	1.61	-0.00170178
4	3572	1.71	-0.00156412
4	4129	1.81	-0.00142314
4	4685	1.91	-0.00128196
4	5252	2.01	-0.00114315
4	5808	2.11	-0.00100877
4	6364	2.21	-0.000880447
4	6920	2.31	-0.000759381
4	7476	2.41	-0.000646445
4	8032	2.51	-0.000542204
4	8588	2.61	-0.000446965
4	9144	2.71	-0.000360819
4	9700	2.81	-0.000283678
4	10256	2.91	-0.000215307
4	10820	3.01	-0.000155357
4	11376	3.11	-0.000103391
4	11932	3.21	-5.89069e-05
4	12488	3.31	-2.13575e-05
4	13044	3.41	9.82919e-06
4	13600	3.51	3.52368e-05
4	14156	3.61	5.54479e-05
4	14712	3.71	7.10335e-05
4	15268	3.81	8.25451e-05
4	15824	3.91	9.05081e-05
4	16388	4.01	9.54172e-05
4	16944	4.11	9.7733e-05
4	17500	4.21	9.78798e-05
4	18056	4.31	9.62447e-05
4	18612	4.41	9.31771e-05
4	19168	4.51	8.89894e-05
4	19724	4.61	8.39579e-05
4	20280	4.71	7.83245e-05
4	20836	4.81	7.22983e-05
4	21392	4.91	6.6058e-05
4	21956	5.01	5.9754e-05
4	22512	5.11	5.35107e-05
4	23068	5.21	4.74294e-05
4	23624	5.31	4.15898e-05
4	24180	5.41	3.60534e-05
4	24736	5.51	3.0865e-05
4	25292	5.61	2.60551e-05
4	25848	5.71	2.16419e-05
4	26404	5.81	1.76335e-05
4	26960	5.91	1.40289e-05
4	27524	6.01	1.08202e-05
4	28080	6.11	7.99392e-06
4	28636	6.21	5.532e-06
4	29192	6.31	3.41315e-06
4	29748	6.41	1.61374e-06
4	30304	6.51	1.08654e-07
4	30860	6.61	-1.12799e-06
4	31416	6.71	-2.12224e-06
4	31972	6.81	-2.89981e-06
4	32528	6.91	-3.48567e-06
4	33092	7.01	-3.90376e-06
4	33648	7.11	-4.17673e-06
4	34204	7.21	-4.32574e-06
4	34760	7.31	-4.3704e-06
4	35316	7.41	-4.32865e-06
4	35872	7.51	-4.21676e-06
4	36428	7.61	-4.04934e-06
4	36984	7.71	-3.83937e-06
4	37540	7.81	-3.59826e-06
4	38096	7.91	-3.33592e-06
4	38660	8.01	-3.06089e-06
4	39216	8.11	-2.78036e-06
4	39772	8.21	-2.50036e-06
4	40328	8.31	-2.22582e-06
4	40884	8.41	-1.96068e-06
4	41440	8.51	-1.708e-06
4	41996	8.61	-1.47009e-06
4	42552	8.71	-1.24855e-06
4	43108	8.81	-1.04441e-06
4	43664	8.91	-8.58219e-07
4	44228	9.01	-6.90082e-07
4	44784	9.11	-5.39774e-07
4	45340	9.21	-4.06787e-07
4	45896	9.31	-2.90396e-07
4	46452	9.41	-1.89707e-07
4	47008	9.51	-1.03704e-07
4	47564	9.61	-3.12909e-08
4	48120	9.71	2.86736e-08
4	48676	9.81	7.73515e-08
4	49232	9.91	1.15897e-07
4	49796	10.01	1.45439e-07
4	50352	10.11	1.67065e-07
4	50908	10.21	1.81809e-07
4	51464	10.31	1.90644e-07
4	52020	10.41	1.94472e-07
4	52576	10.51	1.94125e-07
4	53132	10.61	1.90358e-07
4	53688	10.71	1.83853e-07
4	54244	10.81	1.75219e-07
4	54800	10.91	1.64994e-07
4	55364	11.01	1.53647e-07
4	55920	11.11	1.41582e-07
4	56476	11.21	1.29146e-07
4	57032	11.31	1.16627e-07
4	57588	11.41	1.04266e-07
4	58144	11.51	9.22547e-08
4	58700	11.61	8.07471e-08
4	59256	11.71	6.98584e-08
4	59812	11.81	5.96732e-08
4	60368	11.91	5.02471e-08
4	60932	12.01	4.16133e-08
4	61488	12.11	3.37845e-08
4	62044	12.21	2.67558e-08
4	62600	12.31	2.05102e-08
4	63156	12.41	1.50187e-08
4	63712	12.51	1.02442e-08
4	64268	12.61	6.14406e-09
4	64824	12.71	2.67022e-09
4	65380	12.81	-2.27374e-10
4	65936	12.91	-2.60059e-09
4	66500	13.01	-4.50058e-09
4	67056	13.11	-5.97851e-09
4	67612	13.21	-7.08376e-09
4	68168	13.31	-7.86322e-09
4	68724	13.41	-8.36167e-09
4	69280	13.51	-8.62066e-09
4	69836	13.61	-8.67857e-09
4	70392	13.71	-8.57057e-09
4	70948	13.81	-8.32792e-09
4	71504	13.91	-7.97975e-09
4	72068	14.01	-7.55058e-09
4	72624	14.11	-7.06351e-09
4	73180	14.21	-6.53699e-09
4	73736	14.31	-5.98774e-09
4	74292	14.41	-5.42997e-09
4	74848	14.51	-4.87468e-09
4	75404	14.61	-4.33182e-09
4	75960	14.71	-3.80886e-09
4	76516	14.81	-3.31148e-09
4	77072	14.91	-2.84395e-09
4	77636	15.01	-2.40981e-09
4	78192	15.11	-2.01013e-09
4	78748	15.21	-1.64633e-09
4	79304	15.31	-1.31806e-09
4	79860	15.41	-1.02531e-09
4	80416	15.51	-7.66676e-10
4	80972	15.61	-5.40723e-10
4	81528	15.71	-3.46034e-10
4	82084	15.81	-1.79767e-10
4	82640	15.91	-4.01457e-11
4	83204	16.01	7.49623e-11
4	83760	16.11	1.68043e-10
4	84316	16.21	2.41585e-10
4	84872	16.31	2.97362e-10
4	85428	16.41	3.37863e-10
4	85984	16.51	3.64864e-10
4	86540	16.61	3.80851e-10
4	87096	16.71	3.86891e-10
4	87652	16.81	3.84759e-10
4	88208	16.91	3.76232e-10
4	88772	17.01	3.62377e-10
4	89328	17.11	3.44613e-10
4	89884	17.21	3.24007e-10
4	90440	17.31	3.00915e-10
4	90996	17.41	2.76756e-10
4	91552	17.51	2.52243e-10
4	92108	17.61	2.27374e-10
4	92664	17.71	2.0286e-10
4	93220	17.81	1.79057e-10
4	93776	17.91	1.56319e-10
4	94340	18.01	1.35003e-10
4	94896	18.11	1.15108e-10
4	95452	18.21	9.66338e-11
4	96008	18.31	7.99361e-11
4	96564	18.41	6.46594e-11
4	97120	18.51	5.08038e-11
4	97676	18.61	3.83693e-11
4	98232	18.71	2.73559e-11
4	98788	18.81	1.77636e-11
4	99344	18.91	9.59233e-12
4	99908	19.01	2.84217e-12
4	100464	19.11	-2.84217e-12
4	101020	19.21	-7.4607e-12
4	101576	19.31	-1.13687e-11
4	102132	19.41	-1.42109e-11
4	102688	19.51	-1.63425e-11
4	103244	19.61	-1.77636e-11
4	103800	19.71	-1.84741e-11
4	104356	19.81	-1.88294e-11
4	104912	19.91	-1.88294e-11
5	233	1.11	27.78
5	790	1.21	27.7799
5	1346	1.31	27.7798
5	1903	1.41	27.7797
5	2460	1.51	27.7796
5	3016	1.61	27.7795
5	3572	1.71	27.7794
5	4129	1.81	27.7792
5	4685	1.91	27.7791
5	5252	2.01	27.7789
5	5808	2.11	27.7788
5	6364	2.21	27.7787
5	6920	2.31	27.7785
5	7476	2.41	27.7784
5	8032	2.51	27.7783
5	8588	2.61	27.7782
5	9144	2.71	27.7782
5	9700	2.81	27.7781
5	10256	2.91	27.778
5	10820	3.01	27.7779
5	11376	3.11	27.7779
5	11932	3.21	27.7779
5	12488	3.31	27.7778
5	13044	3.41	27.7778
5	13600	3.51	27.7778
5	14156	3.61	27.7777
5	14712	3.71	27.7777
5	15268	3.81	27.7777
5	15824	3.91	27.7777
5	16388	4.01	27.7777
5	16944	4.11	27.7777
5	17500	4.21	27.7777
5	18056	4.31	27.7777
5	18612	4.41	27.7777
5	19168	4.51	27.7777
5	19724	4.61	27.7777
5	20280	4.71	27.7777
5	20836	4.81	27.7777
5	21392	4.91	27.7777
5	21956	5.01	27.7777
5	22512	5.11	27.7777
5	23068	5.21	27.7778
5	23624	5.31	27.7778
5	24180	5.41	27.7778
5	24736	5.51	27.7778
5	25292	5.61	27.7778
5	25848	5.71	27.7778
5	26404	5.81	27.7778
5	26960	5.91	27.7778
5	27524	6.01	27.7778
5	28080	6.11	27.7778
5	28636	6.21	27.7778
5	29192	6.31	27.7778
5	29748	6.41	27.7778
5	30304	6.51	27.7778
5	30860	6.61	27.7778
5	31416	6.71	27.7778
5	31972	6.81	27.7778
5	32528	6.91	27.7778
5	33092	7.01	27.7778
5	33648	7.11	27.7778
5	34204	7.21	27.7778
5	34760	7.31	27.7778
5	35316	7.41	27.7778
5	35872	7.51	27.7778
5	36428	7.61	27.7778
5	36984	7.71	27.7778
5	37540	7.81	27.7778
5	38096	7.91	27.7778
5	38660	8.01	27.7778
5	39216	8.11	27.7778
5	39772	8.21	27.7778
5	40328	8.31	27.7778
5	40884	8.41	27.7778
5	41440	8.51	27.7778
5	41996	8.61	27.7778
5	42552	8.71	27.7778
5	43108	8.81	27.7778
5	43664	8.91	27.7778
5	44228	9.01	27.7778
5	44784	9.11	27.7778
5	45340	9.21	27.7778
5	45896	9.31	27.7778
5	46452	9.41	27.7778
5	47008	9.51	27.7778
5	47564	9.61	27.7778
5	48120	9.71	27.7778
5	48676	9.81	27.7778
5	49232	9.91	27.7778
5	49796	10.01	27.7778
5	50352	10.11	27.7778
5	50908	10.21	27.7778
5	51464	10.31	27.7778
5	52020	10.41	27.7778
5	52576	10.51	27.7778
5	53132	10.61	27.7778
5	53688	10.71	27.7778
5	54244	10.81	27.7778
5	54800	10.91	27.7778
5	55364	11.01	27.7778
5	55920	11.11	27.7778
5	56476	11.21	27.7778
5	57032	11.31	27.7778
5	57588	11.41	27.7778
5	58144	11.51	27.7778
5	58700	11.61	27.7778
5	59256	11.71	27.7778
5	59812	11.81	27.7778
5	60368	11.91	27.7778
5	60932	12.01	27.7778
5	61488	12.11	27.7778
5	62044	12.21	27.7778
5	62600	12.31	27.7778
5	63156	12.41	27.7778
5	63712	12.51	27.7778
5	64268	12.61	27.7778
5	64824	12.71	27.7778
5	65380	12.81	27.7778
5	65936	12.91	27.7778
5	66500	13.01	27.7778
5	67056	13.11	27.7778
5	67612	13.21	27.7778
5	68168	13.31	27.7778
5	68724	13.41	27.7778
5	69280	13.51	27.7778
5	69836	13.61	27.7778
5	70392	13.71	27.7778
5	70948	13.81	27.7778
5	71504	13.91	27.7778
5	72068	14.01	27.7778
5	72624	14.11	27.7778
5	73180	14.21	27.7778
5	73736	14.31	27.7778
5	74292	14.41	27.7778
5	74848	14.51	27.7778
5	75404	14.61	27.7778
5	75960	14.71	27.7778
5	76516	14.81	27.7778
5	77072	14.91	27.7778
5	77636	15.01	27.7778
5	78192	15.11	27.7778
5	78748	15.21	27.7778
5	79304	15.31	27.7778
5	79860	15.41	27.7778
5	80416	15.51	27.7778
5	80972	15.61	27.7778
5	81528	15.71	27.7778
5	82084	15.81	27.7778
5	82640	15.91	27.7778
5	83204	16.01	27.7778
5	83760	16.11	27.7778
5	84316	16.21	27.7778
5	84872	16.31	27.7778
5	85428	16.41	27.7778
5	85984	16.51	27.7778
5	86540	16.61	27.7778
5	87096	16.71	27.7778
5	87652	16.81	27.7778
5	88208	16.91	27.7778
5	88772	17.01	27.7778
5	89328	17.11	27.7778
5	89884	17.21	27.7778
5	90440	17.31	27.7778
5	90996	17.41	27.7778
5	91552	17.51	27.7778
5	92108	17.61	27.7778
5	92664	17.71	27.7778
5	93220	17.81	27.7778
5	93776	17.91	27.7778
5	94340	18.01	27.7778
5	94896	18.11	27.7778
5	95452	18.21	27.7778
5	96008	18.31	27.7778
5	96564	18.41	27.7778
5	97120	18.51	27.7778
5	97676	18.61	27.7778
5	98232	18.71	27.7778
5	98788	18.81	27.7778
5	99344	18.91	27.7778
5	99908	19.01	27.7778
5	100464	19.11	27.7778
5	101020	19.21	27.7778
5	101576	19.31	27.7778
5	102132	19.41	27.7778
5	102688	19.51	27.7778
5	103244	19.61	27.7778
5	103800	19.71	27.7778
5	104356	19.81	27.7778
5	104912	19.91	27.7778
6	233	1.11	111.27
6	790	1.21	114.048
6	1346	1.31	116.826
6	1903	1.41	119.604
6	2460	1.51	122.382
6	3016	1.61	125.16
6	3572	1.71	127.938
6	4129	1.81	130.716
6	4685	1.91	133.494
6	5252	2.01	136.272
6	5808	2.11	139.05
6	6364	2.21	141.828
6	6920	2.31	144.605
6	7476	2.41	147.383
6	8032	2.51	150.161
6	8588	2.61	152.939
6	9144	2.71	155.717
6	9700	2.81	158.495
6	10256	2.91	161.272
6	10820	3.01	164.05
6	11376	3.11	166.828
6	11932	3.21	169.606
6	12488	3.31	172.383
6	13044	3.41	175.161
6	13600	3.51	177.939
6	14156	3.61	180.717
6	14712	3.71	183.495
6	15268	3.81	186.272
6	15824	3.91	189.05
6	16388	4.01	191.828
6	16944	4.11	194.606
6	17500	4.21	197.383
6	18056	4.31	200.161
6	18612	4.41	202.939
6	19168	4.51	205.717
6	19724	4.61	208.495
6	20280	4.71	211.272
6	20836	4.81	214.05
6	21392	4.91	216.828
6	21956	5.01	219.606
6	22512	5.11	222.383
6	23068	5.21	225.161
6	23624	5.31	227.939
6	24180	5.41	230.717
6	24736	5.51	233.495
6	25292	5.61	236.272
6	25848	5.71	239.05
6	26404	5.81	241.828
6	26960	5.91	244.606
6	27524	6.01	247.383
6	28080	6.11	250.161
6	28636	6.21	252.939
6	29192	6.31	255.717
6	29748	6.41	258.495
6	30304	6.51	261.272
6	30860	6.61	264.05
6	31416	6.71	266.828
6	31972	6.81	269.606
6	32528	6.91	272.383
6	33092	7.01	275.161
6	33648	7.11	277.939
6	34204	7.21	280.717
6	34760	7.31	283.495
6	35316	7.41	286.272
6	35872	7.51	289.05
6	36428	7.61	291.828
6	36984	7.71	294.606
6	37540	7.81	297.383
6	38096	7.91	300.161
6	38660	8.01	302.939
6	39216	8.11	305.717
6	39772	8.21	308.495
6	40328	8.31	311.272
6	40884	8.41	314.05
6	41440	8.51	316.828
6	41996	8.61	319.606
6	42552	8.71	322.383
6	43108	8.81	325.161
6	43664	8.91	327.939
6	44228	9.01	330.717
6	44784	9.11	333.495
6	45340	9.21	336.272
6	45896	9.31	339.05
6	46452	9.41	341.828
6	47008	9.51	344.606
6	47564	9.61	347.383
6	48120	9.71	350.161
6	48676	9.81	352.939
6	49232	9.91	355.717
6	49796	10.01	358.495
6	50352	10.11	361.272
6	50908	10.21	364.05
6	51464	10.31	366.828
6	52020	10.41	369.606
6	52576	10.51	372.384
6	53132	10.61	375.161
6	53688	10.71	377.939
6	54244	10.81	380.717
6	54800	10.91	383.495
6	55364	11.01	386.272
6	55920	11.11	389.05
6	56476	11.21	391.828
6	57032	11.31	394.606
6	57588	11.41	397.384
6	58144	11.51	400.161
6	58700	11.61	402.939
6	59256	11.71	405.717
6	59812	11.81	408.495
6	60368	11.91	411.272
6	60932	12.01	414.05
6	61488	12.11	416.828
6	62044	12.21	419.606
6	62600	12.31	422.384
6	63156	12.41	425.161
6	63712	12.51	427.939
6	64268	12.61	430.717
6	64824	12.71	433.495
6	65380	12.81	436.272
6	65936	12.91	439.05
6	66500	13.01	441.828
6	67056	13.11	444.606
6	67612	13.21	447.384
6	68168	13.31	450.161
6	68724	13.41	452.939
6	69280	13.51	455.717
6	69836	13.61	458.495
6	70392	13.71	461.272
6	70948	13.81	464.05
6	71504	13.91	466.828
6	72068	14.01	469.606
6	72624	14.11	472.384
6	73180	14.21	475.161
6	73736	14.31	477.939
6	74292	14.41	480.717
6	74848	14.51	483.495
6	75404	14.61	486.272
6	75960	14.71	489.05
6	76516	14.81	491.828
6	77072	14.91	494.606
6	77636	15.01	497.384
6	78192	15.11	500.161
6	78748	15.21	502.939
6	79304	15.31	505.717
6	79860	15.41	508.495
6	80416	15.51	511.273
6	80972	15.61	514.05
6	81528	15.71	516.828
6	82084	15.81	519.606
6	82640	15.91	522.384
6	83204	16.01	525.161
6	83760	16.11	527.939
6	84316	16.21	530.717
6	84872	16.31	533.495
6	85428	16.41	536.273
6	85984	16.51	539.05
6	86540	16.61	541.828
6	87096	16.71	544.606
6	87652	16.81	547.384
6	88208	16.91	550.161
6	88772	17.01	552.939
6	89328	17.11	555.717
6	89884	17.21	558.495
6	90440	17.31	561.273
6	90996	17.41	564.05
6	91552	17.51	566.828
6	92108	17.61	569.606
6	92664	17.71	572.384
6	93220	17.81	575.161
6	93776	17.91	577.939
6	94340	18.01	580.717
6	94896	18.11	583.495
6	95452	18.21	586.273
6	96008	18.31	589.05
6	96564	18.41	591.828
6	97120	18.51	594.606
6	97676	18.61	597.384
6	98232	18.71	600.161
6	98788	18.81	602.939
6	99344	18.91	605.717
6	99908	19.01	608.495
6	100464	19.11	611.273
6	101020	19.21	614.05
6	101576	19.31	616.828
6	102132	19.41	619.606
6	102688	19.51	622.384
6	103244	19.61	625.161
6	103800	19.71	627.939
6	104356	19.81	630.717
6	104912	19.91	633.495
7	233	1.11	75.2
7	790	1.21	75.2
7	1346	1.31	75.2
7	1903	1.41	75.2
7	2460	1.51	75.2
7	3016	1.61	75.2
7	3572	1.71	75.2
7	4129	1.81	75.2
7	4685	1.91	75.2
7	5252	2.01	75.2
7	5808	2.11	75.2
7	6364	2.21	75.2
7	6920	2.31	75.2
7	7476	2.41	75.2
7	8032	2.51	75.2
7	8588	2.61	75.2
7	9144	2.71	75.2
7	9700	2.81	75.2
7	10256	2.91	75.2
7	10820	3.01	75.2
7	11376	3.11	75.2
7	11932	3.21	75.2
7	12488	3.31	75.2
7	13044	3.41	75.2
7	13600	3.51	75.2
7	14156	3.61	75.2
7	14712	3.71	75.2
7	15268	3.81	75.2
7	15824	3.91	75.2
7	16388	4.01	75.2
7	16944	4.11	75.2
7	17500	4.21	75.2
7	18056	4.31	75.2
7	18612	4.41	75.2
7	19168	4.51	75.2
7	19724	4.61	75.2
7	20280	4.71	75.2
7	20836	4.81	75.2
7	21392	4.91	75.2
7	21956	5.01	75.2
7	22512	5.11	75.2
7	23068	5.21	75.2
7	23624	5.31	75.2
7	24180	5.41	75.2
7	24736	5.51	75.2
7	25292	5.61	75.2
7	25848	5.71	75.2
7	26404	5.81	75.2
7	26960	5.91	75.2
7	27524	6.01	75.2
7	28080	6.11	75.2
7	28636	6.21	75.2
7	29192	6.31	75.2
7	29748	6.41	75.2
7	30304	6.51	75.2
7	30860	6.61	75.2
7	31416	6.71	75.2
7	31972	6.81	75.2
7	32528	6.91	75.2
7	33092	7.01	75.2
7	33648	7.11	75.2
7	34204	7.21	75.2
7	34760	7.31	75.2
7	35316	7.41	75.2
7	35872	7.51	75.2
7	36428	7.61	75.2
7	36984	7.71	75.2
7	37540	7.81	75.2
7	38096	7.91	75.2
7	38660	8.01	75.2
7	39216	8.11	75.2
7	39772	8.21	75.2
7	40328	8.31	75.2
7	40884	8.41	75.2
7	41440	8.51	75.2
7	41996	8.61	75.2
7	42552	8.71	75.2
7	43108	8.81	75.2
7	43664	8.91	75.2
7	44228	9.01	75.2
7	44784	9.11	75.2
7	45340	9.21	75.2
7	45896	9.31	75.2
7	46452	9.41	75.2
7	47008	9.51	75.2
7	47564	9.61	75.2
7	48120	9.71	75.2
7	48676	9.81	75.2
7	49232	9.91	75.2
7	49796	10.01	75.2
7	50352	10.11	75.2
7	50908	10.21	75.2
7	51464	10.31	75.2
7	52020	10.41	75.2
7	52576	10.51	75.2
7	53132	10.61	75.2
7	53688	10.71	75.2
7	54244	10.81	75.2
7	54800	10.91	75.2
7	55364	11.01	75.2
7	55920	11.11	75.2
7	56476	11.21	75.2
7	57032	11.31	75.2
7	57588	11.41	75.2
7	58144	11.51	75.2
7	58700	11.61	75.2
7	59256	11.71	75.2
7	59812	11.81	75.2
7	60368	11.91	75.2
7	60932	12.01	75.2
7	61488	12.11	75.2
7	62044	12.21	75.2
7	62600	12.31	75.2
7	63156	12.41	75.2
7	63712	12.51	75.2
7	64268	12.61	75.2
7	64824	12.71	75.2
7	65380	12.81	75.2
7	65936	12.91	75.2
7	66500	13.01	75.2
7	67056	13.11	75.2
7	67612	13.21	75.2
7	68168	13.31	75.2
7	68724	13.41	75.2
7	69280	13.51	75.2
7	69836	13.61	75.2
7	70392	13.71	75.2
7	70948	13.81	75.2
7	71504	13.91	75.2
7	72068	14.01	75.2
7	72624	14.11	75.2
7	73180	14.21	75.2
7	73736	14.31	75.2
7	74292	14.41	75.2
7	74848	14.51	75.2
7	75404	14.61	75.2
7	75960	14.71	75.2
7	76516	14.81	75.2
7	77072	14.91	75.2
7	77636	15.01	75.2
7	78192	15.11	75.2
7	78748	15.21	75.2
7	79304	15.31	75.2
7	79860	15.41	75.2
7	80416	15.51	75.2
7	80972	15.61	75.2
7	81528	15.71	75.2
7	82084	15.81	75.2
7	82640	15.91	75.2
7	83204	16.01	75.2
7	83760	16.11	75.2
7	84316	16.21	75.2
7	84872	16.31	75.2
7	85428	16.41	75.2
7	85984	16.51	75.2
7	86540	16.61	75.2
7	87096	16.71	75.2
7	87652	16.81	75.2
7	88208	16.91	75.2
7	88772	17.01	75.2
7	89328	17.11	75.2
7	89884	17.21	75.2
7	90440	17.31	75.2
7	90996	17.41	75.2
7	91552	17.51	75.2
7	92108	17.61	75.2
7	92664	17.71	75.2
7	93220	17.81	75.2
7	93776	17.91	75.2
7	94340	18.01	75.2
7	94896	18.11	75.2
7	95452	18.21	75.2
7	96008	18.31	75.2
7	96564	18.41	75.2
7	97120	18.51	75.2
7	97676	18.61	75.2
7	98232	18.71	75.2
7	98788	18.81	75.2
7	99344	18.91	75.2
7	99908	19.01	75.2
7	100464	19.11	75.2
7	101020	19.21	75.2
7	101576	19.31	75.2
7	102132	19.41	75.2
7	102688	19.51	75.2
7	103244	19.61	75.2
7	103800	19.71	75.2
7	104356	19.81	75.2
7	104912	19.91	75.2
8	234	1.11	10.33
8	791	1.21	10.33
8	1347	1.31	10.3297
8	1904	1.41	10.3289
8	2461	1.51	10.3272
8	3017	1.61	10.3245
8	3573	1.71	10.3205
8	4130	1.81	10.3151
8	4686	1.91	10.3083
8	5253	2.01	10.2999
8	5809	2.11	10.29
8	6365	2.21	10.2784
8	6921	2.31	10.2653
8	7477	2.41	10.2505
8	8033	2.51	10.2342
8	8589	2.61	10.2163
8	9145	2.71	10.1968
8	9701	2.81	10.1759
8	10257	2.91	10.1535
8	10821	3.01	10.1297
8	11377	3.11	10.1046
8	11933	3.21	10.0782
8	12489	3.31	10.0506
8	13045	3.41	10.0218
8	13601	3.51	9.99188
8	14157	3.61	9.96089
8	14713	3.71	9.9289
8	15269	3.81	9.89596
8	15825	3.91	9.86212
8	16389	4.01	9.82743
8	16945	4.11	9.79196
8	17501	4.21	9.75575
8	18057	4.31	9.71885
8	18613	4.41	9.68132
8	19169	4.51	9.64319
8	19725	4.61	9.60451
8	20281	4.71	9.56533
8	20837	4.81	9.52569
8	21393	4.91	9.48563
8	21957	5.01	9.44519
8	22513	5.11	9.40441
8	23069	5.21	9.36333
8	23625	5.31	9.32197
8	24181	5.41	9.28038
8	24737	5.51	9.23859
8	25293	5.61	9.19662
8	25849	5.71	9.15451
8	26405	5.81	9.11229
8	26961	5.91	9.06998
8	27525	6.01	9.02761
8	28081	6.11	8.9852
8	28637	6.21	8.94278
8	29193	6.31	8.90036
8	29749	6.41	8.85798
8	30305	6.51	8.81565
8	30861	6.61	8.77339
8	31417	6.71	8.73122
8	31973	6.81	8.68916
8	32529	6.91	8.64722
8	33093	7.01	8.60542
8	33649	7.11	8.56377
8	34205	7.21	8.52229
8	34761	7.31	8.481
8	35317	7.41	8.43989
8	35873	7.51	8.399
8	36429	7.61	8.35832
8	36985	7.71	8.31787
8	37541	7.81	8.27766
8	38097	7.91	8.23769
8	38661	8.01	8.19799
8	39217	8.11	8.15854
8	39773	8.21	8.11937
8	40329	8.31	8.08048
8	40885	8.41	8.04187
8	41441	8.51	8.00356
8	41997	8.61	7.96554
8	42553	8.71	7.92783
8	43109	8.81	7.89043
8	43665	8.91	7.85333
8	44229	9.01	7.81656
8	44785	9.11	7.78011
8	45341	9.21	7.74398
8	45897	9.31	7.70817
8	46453	9.41	7.6727
8	47009	9.51	7.63756
8	47565	9.61	7.60275
8	48121	9.71	7.56828
8	48677	9.81	7.53415
8	49233	9.91	7.50036
8	49797	10.01	7.46691
8	50353	10.11	7.4338
8	50909	10.21	7.40103
8	51465	10.31	7.3686
8	52021	10.41	7.33652
8	52577	10.51	7.30477
8	53133	10.61	7.27337
8	53689	10.71	7.24232
8	54245	10.81	7.2116
8	54801	10.91	7.18123
8	55365	11.01	7.1512
8	55921	11.11	7.1215
8	56477	11.21	7.09215
8	57033	11.31	7.06313
8	57589	11.41	7.03445
8	58145	11.51	7.0061
8	58701	11.61	6.97809
8	59257	11.71	6.95041
8	59813	11.81	6.92305
8	60369	11.91	6.89603
8	60933	12.01	6.86933
8	61489	12.11	6.84296
8	62045	12.21	6.81691
8	62601	12.31	6.79117
8	63157	12.41	6.76576
8	63713	12.51	6.74066
8	64269	12.61	6.71588
8	64825	12.71	6.69141
8	65381	12.81	6.66724
8	65937	12.91	6.64338
8	66501	13.01	6.61983
8	67057	13.11	6.59658
8	67613	13.21	6.57362
8	68169	13.31	6.55097
8	68725	13.41	6.5286
8	69281	13.51	6.50653
8	69837	13.61	6.48474
8	70393	13.71	6.46325
8	70949	13.81	6.44203
8	71505	13.91	6.42109
8	72069	14.01	6.40044
8	72625	14.11	6.38005
8	73181	14.21	6.35994
8	73737	14.31	6.3401
8	74293	14.41	6.32053
8	74849	14.51	6.30122
8	75405	14.61	6.28217
8	75961	14.71	6.26337
8	76517	14.81	6.24484
8	77073	14.91	6.22656
8	77637	15.01	6.20852
8	78193	15.11	6.19074
8	78749	15.21	6.17319
8	79305	15.31	6.1559
8	79861	15.41	6.13883
8	80417	15.51	6.12201
8	80973	15.61	6.10542
8	81529	15.71	6.08906
8	82085	15.81	6.07293
8	82641	15.91	6.05702
8	83205	16.01	6.04134
8	83761	16.11	6.02587
8	84317	16.21	6.01063
8	84873	16.31	5.9956
8	85429	16.41	5.98078
8	85985	16.51	5.96617
8	86541	16.61	5.95176
8	87097	16.71	5.93757
8	87653	16.81	5.92357
8	88209	16.91	5.90977
8	88773	17.01	5.89617
8	89329	17.11	5.88277
8	89885	17.21	5.86955
8	90441	17.31	5.85653
8	90997	17.41	5.84369
8	91553	17.51	5.83104
8	92109	17.61	5.81857
8	92665	17.71	5.80628
8	93221	17.81	5.79417
8	93777	17.91	5.78223
8	94341	18.01	5.77047
8	94897	18.11	5.75887
8	95453	18.21	5.74745
8	96009	18.31	5.73619
8	96565	18.41	5.72509
8	97121	18.51	5.71416
8	97677	18.61	5.70339
8	98233	18.71	5.69277
8	98789	18.81	5.68231
8	99345	18.91	5.672
8	99909	19.01	5.66184
8	100465	19.11	5.65184
8	101021	19.21	5.64198
8	101577	19.31	5.63226
8	102133	19.41	5.62269
8	102689	19.51	5.61326
8	103245	19.61	5.60396
8	103801	19.71	5.59481
8	104357	19.81	5.58579
8	104913	19.91	5.5769
9	234	1.11	-1.84044e-05
9	791	1.21	-0.00067721
9	1347	1.31	-0.00468696
9	1904	1.41	-0.0117693
9	2461	1.51	-0.0213206
9	3017	1.61	-0.0328273
9	3573	1.71	-0.0458534
9	4130	1.81	-0.0600293
9	4686	1.91	-0.0750427
9	5253	2.01	-0.0906303
9	5809	2.11	-0.106571
9	6365	2.21	-0.12268
9	6921	2.31	-0.138803
9	7477	2.41	-0.154813
9	8033	2.51	-0.170603
9	8589	2.61	-0.18609
9	9145	2.71	-0.201202
9	9701	2.81	-0.215886
9	10257	2.91	-0.230097
9	10821	3.01	-0.243802
9	11377	3.11	-0.256977
9	11933	3.21	-0.269604
9	12489	3.31	-0.281673
9	13045	3.41	-0.293177
9	13601	3.51	-0.304115
9	14157	3.61	-0.314488
9	14713	3.71	-0.324301
9	15269	3.81	-0.333561
9	15825	3.91	-0.342278
9	16389	4.01	-0.350461
9	16945	4.11	-0.358124
9	17501	4.21	-0.365279
9	18057	4.31	-0.37194
9	18613	4.41	-0.378122
9	19169	4.51	-0.383839
9	19725	4.61	-0.389107
9	20281	4.71	-0.39394
9	20837	4.81	-0.398353
9	21393	4.91	-0.402363
9	21957	5.01	-0.405983
9	22513	5.11	-0.409229
9	23069	5.21	-0.412115
9	23625	5.31	-0.414657
9	24181	5.41	-0.416868
9	24737	5.51	-0.418761
9	25293	5.61	-0.420351
9	25849	5.71	-0.42165
9	26405	5.81	-0.422671
9	26961	5.91	-0.423426
9	27525	6.01	-0.423927
9	28081	6.11	-0.424186
9	28637	6.21	-0.424213
9	29193	6.31	-0.42402
9	29749	6.41	-0.423617
9	30305	6.51	-0.423015
9	30861	6.61	-0.422223
9	31417	6.71	-0.42125
9	31973	6.81	-0.420106
9	32529	6.91	-0.418799
9	33093	7.01	-0.417338
9	33649	7.11	-0.415731
9	34205	7.21	-0.413987
9	34761	7.31	-0.412111
9	35317	7.41	-0.410112
9	35873	7.51	-0.407998
9	36429	7.61	-0.405773
9	36985	7.71	-0.403445
9	37541	7.81	-0.401021
9	38097	7.91	-0.398505
9	38661	8.01	-0.395904
9	39217	8.11	-0.393224
9	39773	8.21	-0.390469
9	40329	8.31	-0.387644
9	40885	8.41	-0.384755
9	41441	8.51	-0.381806
9	41997	8.61	-0.378801
9	42553	8.71	-0.375745
9	43109	8.81	-0.372642
9	43665	8.91	-0.369495
9	44229	9.01	-0.366309
9	44785	9.11	-0.363087
9	45341	9.21	-0.359833
9	45897	9.31	-0.356549
9	46453	9.41	-0.353239
9	47009	9.51	-0.349906
9	47565	9.61	-0.346552
9	48121	9.71	-0.343182
9	48677	9.81	-0.339796
9	49233	9.91	-0.336397
9	49797	10.01	-0.332989
9	50353	10.11	-0.329573
9	50909	10.21	-0.326151
9	51465	10.31	-0.322726
9	52021	10.41	-0.319299
9	52577	10.51	-0.315872
9	53133	10.61	-0.312447
9	53689	10.71	-0.309026
9	54245	10.81	-0.305611
9	54801	10.91	-0.302202
9	55365	11.01	-0.298801
9	55921	11.11	-0.29541
9	56477	11.21	-0.29203
9	57033	11.31	-0.288663
9	57589	11.41	-0.285308
9	58145	11.51	-0.281968
9	58701	11.61	-0.278643
9	59257	11.71	-0.275335
9	59813	11.81	-0.272044
9	60369	11.91	-0.268772
9	60933	12.01	-0.265519
9	61489	12.11	-0.262285
9	62045	12.21	-0.259072
9	62601	12.31	-0.25588
9	63157	12.41	-0.25271
9	63713	12.51	-0.249563
9	64269	12.61	-0.246438
9	64825	12.71	-0.243337
9	65381	12.81	-0.24026
9	65937	12.91	-0.237208
9	66501	13.01	-0.23418
9	67057	13.11	-0.231178
9	67613	13.21	-0.228201
9	68169	13.31	-0.22525
9	68725	13.41	-0.222325
9	69281	13.51	-0.219426
9	69837	13.61	-0.216554
9	70393	13.71	-0.213709
9	70949	13.81	-0.210891
9	71505	13.91	-0.2081
9	72069	14.01	-0.205336
9	72625	14.11	-0.2026
9	73181	14.21	-0.199891
9	73737	14.31	-0.197209
9	74293	14.41	-0.194556
9	74849	14.51	-0.19193
9	75405	14.61	-0.189331
9	75961	14.71	-0.186761
9	76517	14.81	-0.184218
9	77073	14.91	-0.181703
9	77637	15.01	-0.179215
9	78193	15.11	-0.176755
9	78749	15.21	-0.174323
9	79305	15.31	-0.171917
9	79861	15.41	-0.16954
9	80417	15.51	-0.167189
9	80973	15.61	-0.164866
9	81529	15.71	-0.16257
9	82085	15.81	-0.160301
9	82641	15.91	-0.158058
9	83205	16.01	-0.155843
9	83761	16.11	-0.153654
9	84317	16.21	-0.151491
9	84873	16.31	-0.149354
9	85429	16.41	-0.147244
9	85985	16.51	-0.145159
9	86541	16.61	-0.1431
9	87097	16.71	-0.141067
9	87653	16.81	-0.139059
9	88209	16.91	-0.137077
9	88773	17.01	-0.135119
9	89329	17.11	-0.133186
9	89885	17.21	-0.131278
9	90441	17.31	-0.129394
9	90997	17.41	-0.127534
9	91553	17.51	-0.125698
9	92109	17.61	-0.123886
9	92665	17.71	-0.122098
9	93221	17.81	-0.120333
9	93777	17.91	-0.118591
9	94341	18.01	-0.116872
9	94897	18.11	-0.115176
9	95453	18.21	-0.113502
9	96009	18.31	-0.11185
9	96565	18.41	-0.110221
9	97121	18.51	-0.108613
9	97677	18.61	-0.107027
9	98233	18.71	-0.105462
9	98789	18.81	-0.103918
9	99345	18.91	-0.102396
9	99909	19.01	-0.100894
9	100465	19.11	-0.099412
9	101021	19.21	-0.0979507
9	101577	19.31	-0.0965094
9	102133	19.41	-0.095088
9	102689	19.51	-0.0936861
9	103245	19.61	-0.0923035
9	103801	19.71	-0.0909401
9	104357	19.81	-0.0895957
9	104913	19.91	-0.0882699
10	234	1.11	1
10	791	1.21	1
10	1347	1.31	1
10	1904	1.41	1
10	2461	1.51	1
10	3017	1.61	1
10	3573	1.71	1
10	4130	1.81	1
10	4686	1.91	1
10	5253	2.01	1
10	5809	2.11	1
10	6365	2.21	1
10	6921	2.31	1
10	7477	2.41	1
10	8033	2.51	1
10	8589	2.61	1
10	9145	2.71	1
10	9701	2.81	1
10	10257	2.91	1
10	10821	3.01	1
10	11377	3.11	1
10	11933	3.21	1
10	12489	3.31	1
10	13045	3.41	1
10	13601	3.51	1
10	14157	3.61	1
10	14713	3.71	1
10	15269	3.81	1
10	15825	3.91	1
10	16389	4.01	1
10	16945	4.11	1
10	17501	4.21	1
10	18057	4.31	1
10	18613	4.41	1
10	19169	4.51	1
10	19725	4.61	1
10	20281	4.71	1
10	20837	4.81	1
10	21393	4.91	1
10	21957	5.01	1
10	22513	5.11	1
10	23069	5.21	1
10	23625	5.31	1
10	24181	5.41	1
10	24737	5.51	1
10	25293	5.61	1
10	25849	5.71	1
10	26405	5.81	1
10	26961	5.91	1
10	27525	6.01	1
10	28081	6.11	1
10	28637	6.21	1
10	29193	6.31	1
10	29749	6.41	1
10	30305	6.51	1
10	30861	6.61	1
10	31417	6.71	1
10	31973	6.81	1
10	32529	6.91	1
10	33093	7.01	1
10	33649	7.11	1
10	34205	7.21	1
10	34761	7.31	1
10	35317	7.41	1
10	35873	7.51	1
10	36429	7.61	1
10	36985	7.71	1
10	37541	7.81	1
10	38097	7.91	1
10	38661	8.01	1
10	39217	8.11	1
10	39773	8.21	1
10	40329	8.31	1
10	40885	8.41	1
10	41441	8.51	1
10	41997	8.61	1
10	42553	8.71	1
10	43109	8.81	1
10	43665	8.91	1
10	44229	9.01	1
10	44785	9.11	1
10	45341	9.21	1
10	45897	9.31	1
10	46453	9.41	1
10	47009	9.51	1
10	47565	9.61	1
10	48121	9.71	1
10	48677	9.81	1
10	49233	9.91	1
10	49797	10.01	1
10	50353	10.11	1
10	50909	10.21	1
10	51465	10.31	1
10	52021	10.41	1
10	52577	10.51	1
10	53133	10.61	1
10	53689	10.71	1
10	54245	10.81	1
10	54801	10.91	1
10	55365	11.01	1
10	55921	11.11	1
10	56477	11.21	1
10	57033	11.31	1
10	57589	11.41	1
10	58145	11.51	1
10	58701	11.61	1
10	59257	11.71	1
10	59813	11.81	1
10	60369	11.91	1
10	60933	12.01	1
10	61489	12.11	1
10	62045	12.21	1
10	62601	12.31	1
10	63157	12.41	1
10	63713	12.51	1
10	64269	12.61	1
10	64825	12.71	1
10	65381	12.81	1
10	65937	12.91	1
10	66501	13.01	1
10	67057	13.11	1
10	67613	13.21	1
10	68169	13.31	1
10	68725	13.41	1
10	69281	13.51	1
10	69837	13.61	1
10	70393	13.71	1
10	70949	13.81	1
10	71505	13.91	1
10	72069	14.01	1
10	72625	14.11	1
10	73181	14.21	1
10	73737	14.31	1
10	74293	14.41	1
10	74849	14.51	1
10	75405	14.61	1
10	75961	14.71	1
10	76517	14.81	1
10	77073	14.91	1
10	77637	15.01	1
10	78193	15.11	1
10	78749	15.21	1
10	79305	15.31	1
10	79861	15.41	1
10	80417	15.51	1
10	80973	15.61	1
10	81529	15.71	1
10	82085	15.81	1
10	82641	15.91	1
10	83205	16.01	1
10	83761	16.11	1
10	84317	16.21	1
10	84873	16.31	1
10	85429	16.41	1
10	85985	16.51	1
10	86541	16.61	1
10	87097	16.71	1
10	87653	16.81	1
10	88209	16.91	1
10	88773	17.01	1
10	89329	17.11	1
10	89885	17.21	1
10	90441	17.31	1
10	90997	17.41	1
10	91553	17.51	1
10	92109	17.61	1
10	92665	17.71	1
10	93221	17.81	1
10	93777	17.91	1
10	94341	18.01	1
10	94897	18.11	1
10	95453	18.21	1
10	96009	18.31	1
10	96565	18.41	1
10	97121	18.51	1
10	97677	18.61	1
10	98233	18.71	1
10	98789	18.81	1
10	99345	18.91	1
10	99909	19.01	1
10	100465	19.11	1
10	101021	19.21	1
10	101577	19.31	1
10	102133	19.41	1
10	102689	19.51	1
10	103245	19.61	1
10	103801	19.71	1
10	104357	19.81	1
10	104913	19.91	1
11	234	1.11	0
11	791	1.21	0.0198873
11	1347	1.31	0.054072
11	1904	1.41	0.0817296
11	2461	1.51	0.103833
11	3017	1.61	0.121218
11	3573	1.71	0.134598
11	4130	1.81	0.144588
11	4686	1.91	0.151716
11	5253	2.01	0.156434
11	5809	2.11	0.159134
11	6365	2.21	0.160142
11	6921	2.31	0.159744
11	7477	2.41	0.158185
11	8033	2.51	0.155672
11	8589	2.61	0.152382
11	9145	2.71	0.148465
11	9701	2.81	0.14405
11	10257	2.91	0.139245
11	10821	3.01	0.134147
11	11377	3.11	0.128833
11	11933	3.21	0.123371
11	12489	3.31	0.117815
11	13045	3.41	0.112212
11	13601	3.51	0.106605
11	14157	3.61	0.101026
11	14713	3.71	0.0954974
11	15269	3.81	0.0900432
11	15825	3.91	0.0846848
11	16389	4.01	0.0794366
11	16945	4.11	0.0743101
11	17501	4.21	0.0693141
11	18057	4.31	0.0644556
11	18613	4.41	0.0597397
11	19169	4.51	0.05517
11	19725	4.61	0.0507486
11	20281	4.71	0.0464767
11	20837	4.81	0.0423546
11	21393	4.91	0.0383817
11	21957	5.01	0.0345568
11	22513	5.11	0.0308782
11	23069	5.21	0.0273475
11	23625	5.31	0.0239611
11	24181	5.41	0.0207121
11	24737	5.51	0.0175976
11	25293	5.61	0.0146147
11	25849	5.71	0.0117599
11	26405	5.81	0.00902991
11	26961	5.91	0.00642128
11	27525	6.01	0.00393044
11	28081	6.11	0.00155385
11	28637	6.21	-0.000712081
11	29193	6.31	-0.0028709
11	29749	6.41	-0.00492615
11	30305	6.51	-0.00688133
11	30861	6.61	-0.00873988
11	31417	6.71	-0.0105052
11	31973	6.81	-0.0121806
11	32529	6.91	-0.0137694
11	33093	7.01	-0.0152747
11	33649	7.11	-0.0166996
11	34205	7.21	-0.0180472
11	34761	7.31	-0.0193204
11	35317	7.41	-0.0205221
11	35873	7.51	-0.021655
11	36429	7.61	-0.0227217
11	36985	7.71	-0.0237251
11	37541	7.81	-0.0246674
11	38097	7.91	-0.0255512
11	38661	8.01	-0.0263789
11	39217	8.11	-0.0271526
11	39773	8.21	-0.0278747
11	40329	8.31	-0.0285471
11	40885	8.41	-0.0291721
11	41441	8.51	-0.0297515
11	41997	8.61	-0.0302873
11	42553	8.71	-0.0307812
11	43109	8.81	-0.0312351
11	43665	8.91	-0.0316507
11	44229	9.01	-0.0320296
11	44785	9.11	-0.0323735
11	45341	9.21	-0.0326837
11	45897	9.31	-0.0329618
11	46453	9.41	-0.0332093
11	47009	9.51	-0.0334274
11	47565	9.61	-0.0336175
11	48121	9.71	-0.0337808
11	48677	9.81	-0.0339187
11	49233	9.91	-0.0340321
11	49797	10.01	-0.0341223
11	50353	10.11	-0.0341903
11	50909	10.21	-0.0342372
11	51465	10.31	-0.034264
11	52021	10.41	-0.0342717
11	52577	10.51	-0.0342611
11	53133	10.61	-0.0342331
11	53689	10.71	-0.0341887
11	54245	10.81	-0.0341286
11	54801	10.91	-0.0340537
11	55365	11.01	-0.0339647
11	55921	11.11	-0.0338622
11	56477	11.21	-0.0337472
11	57033	11.31	-0.0336201
11	57589	11.41	-0.0334816
11	58145	11.51	-0.0333325
11	58701	11.61	-0.0331732
11	59257	11.71	-0.0330044
11	59813	11.81	-0.0328266
11	60369	11.91	-0.0326403
11	60933	12.01	-0.0324461
11	61489	12.11	-0.0322444
11	62045	12.21	-0.0320357
11	62601	12.31	-0.0318204
11	63157	12.41	-0.031599
11	63713	12.51	-0.0313719
11	64269	12.61	-0.0311396
11	64825	12.71	-0.0309022
11	65381	12.81	-0.0306603
11	65937	12.91	-0.0304142
11	66501	13.01	-0.0301642
11	67057	13.11	-0.0299106
11	67613	13.21	-0.0296538
11	68169	13.31	-0.029394
11	68725	13.41	-0.0291315
11	69281	13.51	-0.0288666
11	69837	13.61	-0.0285995
11	70393	13.71	-0.0283305
11	70949	13.81	-0.0280599
11	71505	13.91	-0.0277877
11	72069	14.01	-0.0275143
11	72625	14.11	-0.0272399
11	73181	14.21	-0.0269646
11	73737	14.31	-0.0266886
11	74293	14.41	-0.0264122
11	74849	14.51	-0.0261354
11	75405	14.61	-0.0258585
11	75961	14.71	-0.0255815
11	76517	14.81	-0.0253047
11	77073	14.91	-0.0250282
11	77637	15.01	-0.024752
11	78193	15.11	-0.0244764
11	78749	15.21	-0.0242015
11	79305	15.31	-0.0239273
11	79861	15.41	-0.0236539
11	80417	15.51	-0.0233816
11	80973	15.61	-0.0231102
11	81529	15.71	-0.0228401
11	82085	15.81	-0.0225712
11	82641	15.91	-0.0223035
11	83205	16.01	-0.0220373
11	83761	16.11	-0.0217726
11	84317	16.21	-0.0215093
11	84873	16.31	-0.0212477
11	85429	16.41	-0.0209877
11	85985	16.51	-0.0207294
11	86541	16.61	-0.0204729
11	87097	16.71	-0.0202181
11	87653	16.81	-0.0199653
11	88209	16.91	-0.0197143
11	88773	17.01	-0.0194652
11	89329	17.11	-0.0192182
11	89885	17.21	-0.0189731
11	90441	17.31	-0.01873
11	90997	17.41	-0.018489
11	91553	17.51	-0.0182501
11	92109	17.61	-0.0180133
11	92665	17.71	-0.0177787
11	93221	17.81	-0.0175461
11	93777	17.91	-0.0173158
11	94341	18.01	-0.0170876
11	94897	18.11	-0.0168616
11	95453	18.21	-0.0166378
11	96009	18.31	-0.0164163
11	96565	18.41	-0.0161969
11	97121	18.51	-0.0159798
11	97677	18.61	-0.0157649
11	98233	18.71	-0.0155522
11	98789	18.81	-0.0153418
11	99345	18.91	-0.0151336
11	99909	19.01	-0.0149277
11	100465	19.11	-0.014724
11	101021	19.21	-0.0145225
11	101577	19.31	-0.0143232
11	102133	19.41	-0.0141262
11	102689	19.51	-0.0139314
11	103245	19.61	-0.0137388
11	103801	19.71	-0.0135485
11	104357	19.81	-0.0133603
11	104913	19.91	-0.0131743
12	234	1.11	0
12	791	1.21	0.210863
12	1347	1.31	0.209441
12	1904	1.41	0.206777
12	2461	1.51	0.203098
12	3017	1.61	0.198595
12	3573	1.71	0.193393
12	4130	1.81	0.187709
12	4686	1.91	0.181583
12	5253	2.01	0.175195
12	5809	2.11	0.16859
12	6365	2.21	0.161799
12	6921	2.31	0.154963
12	7477	2.41	0.148092
12	8033	2.51	0.14123
12	8589	2.61	0.134411
12	9145	2.71	0.127665
12	9701	2.81	0.121017
12	10257	2.91	0.114485
12	10821	3.01	0.108127
12	11377	3.11	0.101875
12	11933	3.21	0.095818
12	12489	3.31	0.089885
12	13045	3.41	0.0841612
12	13601	3.51	0.0786105
12	14157	3.61	0.0732353
12	14713	3.71	0.067997
12	15269	3.81	0.0629758
12	15825	3.91	0.0581311
12	16389	4.01	0.0534615
12	16945	4.11	0.048965
12	17501	4.21	0.0446391
12	18057	4.31	0.0404807
12	18613	4.41	0.0364867
12	19169	4.51	0.0326535
12	19725	4.61	0.0289773
12	20281	4.71	0.0254542
12	20837	4.81	0.0220802
12	21393	4.91	0.0188512
12	21957	5.01	0.0157629
12	22513	5.11	0.0128111
12	23069	5.21	0.0100316
12	23625	5.31	0.00733992
12	24181	5.41	0.00477194
12	24737	5.51	0.00232353
12	25293	5.61	-9.33554e-06
12	25849	5.71	-0.00223065
12	26405	5.81	-0.00434432
12	26961	5.91	-0.00635418
12	27525	6.01	-0.00826399
12	28081	6.11	-0.0100774
12	28637	6.21	-0.011798
12	29193	6.31	-0.0134292
12	29749	6.41	-0.0149745
12	30305	6.51	-0.0164371
12	30861	6.61	-0.0178202
12	31417	6.71	-0.0191269
12	31973	6.81	-0.0203602
12	32529	6.91	-0.0215229
12	33093	7.01	-0.0226179
12	33649	7.11	-0.0236479
12	34205	7.21	-0.0246155
12	34761	7.31	-0.0255231
12	35317	7.41	-0.0263734
12	35873	7.51	-0.0271685
12	36429	7.61	-0.0279107
12	36985	7.71	-0.0286024
12	37541	7.81	-0.0292454
12	38097	7.91	-0.029842
12	38661	8.01	-0.0303939
12	39217	8.11	-0.0309032
12	39773	8.21	-0.0313716
12	40329	8.31	-0.0318009
12	40885	8.41	-0.0321928
12	41441	8.51	-0.0325488
12	41997	8.61	-0.0328705
12	42553	8.71	-0.0331595
12	43109	8.81	-0.0334171
12	43665	8.91	-0.0336448
12	44229	9.01	-0.0338439
12	44785	9.11	-0.0340157
12	45341	9.21	-0.0341615
12	45897	9.31	-0.0342823
12	46453	9.41	-0.0343794
12	47009	9.51	-0.0344539
12	47565	9.61	-0.0345068
12	48121	9.71	-0.0345391
12	48677	9.81	-0.0345519
12	49233	9.91	-0.0345461
12	49797	10.01	-0.0345225
12	50353	10.11	-0.0344821
12	50909	10.21	-0.0344257
12	51465	10.31	-0.0343541
12	52021	10.41	-0.0342681
12	52577	10.51	-0.0341684
12	53133	10.61	-0.0340557
12	53689	10.71	-0.0339307
12	54245	10.81	-0.0337942
12	54801	10.91	-0.0336467
12	55365	11.01	-0.0334888
12	55921	11.11	-0.0333211
12	56477	11.21	-0.0331442
12	57033	11.31	-0.0329586
12	57589	11.41	-0.0327649
12	58145	11.51	-0.0325635
12	58701	11.61	-0.0323549
12	59257	11.71	-0.0321396
12	59813	11.81	-0.0319181
12	60369	11.91	-0.0316906
12	60933	12.01	-0.0314577
12	61489	12.11	-0.0312197
12	62045	12.21	-0.030977
12	62601	12.31	-0.03073
12	63157	12.41	-0.030479
12	63713	12.51	-0.0302242
12	64269	12.61	-0.0299662
12	64825	12.71	-0.029705
12	65381	12.81	-0.0294411
12	65937	12.91	-0.0291746
12	66501	13.01	-0.0289059
12	67057	13.11	-0.0286352
12	67613	13.21	-0.0283627
12	68169	13.31	-0.0280887
12	68725	13.41	-0.0278134
12	69281	13.51	-0.027537
12	69837	13.61	-0.0272596
12	70393	13.71	-0.0269816
12	70949	13.81	-0.026703
12	71505	13.91	-0.026424
12	72069	14.01	-0.0261448
12	72625	14.11	-0.0258656
12	73181	14.21	-0.0255865
12	73737	14.31	-0.0253076
12	74293	14.41	-0.0250291
12	74849	14.51	-0.0247511
12	75405	14.61	-0.0244737
12	75961	14.71	-0.024197
12	76517	14.81	-0.0239212
12	77073	14.91	-0.0236463
12	77637	15.01	-0.0233725
12	78193	15.11	-0.0230998
12	78749	15.21	-0.0228283
12	79305	15.31	-0.0225581
12	79861	15.41	-0.0222893
12	80417	15.51	-0.022022
12	80973	15.61	-0.0217562
12	81529	15.71	-0.021492
12	82085	15.81	-0.0212294
12	82641	15.91	-0.0209685
12	83205	16.01	-0.0207094
12	83761	16.11	-0.0204521
12	84317	16.21	-0.0201967
12	84873	16.31	-0.0199431
12	85429	16.41	-0.0196915
12	85985	16.51	-0.0194419
12	86541	16.61	-0.0191942
12	87097	16.71	-0.0189487
12	87653	16.81	-0.0187051
12	88209	16.91	-0.0184637
12	88773	17.01	-0.0182244
12	89329	17.11	-0.0179872
12	89885	17.21	-0.0177522
12	90441	17.31	-0.0175194
12	90997	17.41	-0.0172888
12	91553	17.51	-0.0170603
12	92109	17.61	-0.0168341
12	92665	17.71	-0.0166101
12	93221	17.81	-0.0163884
12	93777	17.91	-0.0161689
12	94341	18.01	-0.0159516
12	94897	18.11	-0.0157366
12	95453	18.21	-0.0155239
12	96009	18.31	-0.0153134
12	96565	18.41	-0.0151051
12	97121	18.51	-0.0148992
12	97677	18.61	-0.0146954
12	98233	18.71	-0.014494
12	98789	18.81	-0.0142947
12	99345	18.91	-0.0140977
12	99909	19.01	-0.013903
12	100465	19.11	-0.0137104
12	101021	19.21	-0.0135201
12	101577	19.31	-0.013332
12	102133	19.41	-0.0131461
12	102689	19.51	-0.0129624
12	103245	19.61	-0.0127809
12	103801	19.71	-0.0126015
12	104357	19.81	-0.0124243
12	104913	19.91	-0.0122492
13	234	1.11	27.78
13	791	1.21	27.7806
13	1347	1.31	27.7845
13	1904	1.41	27.7915
13	2461	1.51	27.8009
13	3017	1.61	27.8123
13	3573	1.71	27.8252
13	4130	1.81	27.8392
13	4686	1.91	27.8541
13	5253	2.01	27.8696
13	5809	2.11	27.8854
13	6365	2.21	27.9013
13	6921	2.31	27.9174
13	7477	2.41	27.9332
13	8033	2.51	27.9489
13	8589	2.61	27.9643
13	9145	2.71	27.9794
13	9701	2.81	27.994
13	10257	2.91	28.0081
13	10821	3.01	28.0218
13	11377	3.11	28.0349
13	11933	3.21	28.0475
13	12489	3.31	28.0595
13	13045	3.41	28.071
13	13601	3.51	28.0819
13	14157	3.61	28.0922
13	14713	3.71	28.102
13	15269	3.81	28.1113
13	15825	3.91	28.12
13	16389	4.01	28.1282
13	16945	4.11	28.1358
13	17501	4.21	28.143
13	18057	4.31	28.1496
13	18613	4.41	28.1558
13	19169	4.51	28.1616
13	19725	4.61	28.1668
13	20281	4.71	28.1717
13	20837	4.81	28.1761
13	21393	4.91	28.1801
13	21957	5.01	28.1837
13	22513	5.11	28.187
13	23069	5.21	28.1899
13	23625	5.31	28.1924
13	24181	5.41	28.1946
13	24737	5.51	28.1965
13	25293	5.61	28.1981
13	25849	5.71	28.1994
13	26405	5.81	28.2005
13	26961	5.91	28.2012
13	27525	6.01	28.2017
13	28081	6.11	28.202
13	28637	6.21	28.202
13	29193	6.31	28.2018
13	29749	6.41	28.2014
13	30305	6.51	28.2008
13	30861	6.61	28.2
13	31417	6.71	28.1991
13	31973	6.81	28.1979
13	32529	6.91	28.1966
13	33093	7.01	28.1951
13	33649	7.11	28.1935
13	34205	7.21	28.1918
13	34761	7.31	28.1899
13	35317	7.41	28.1879
13	35873	7.51	28.1858
13	36429	7.61	28.1836
13	36985	7.71	28.1812
13	37541	7.81	28.1788
13	38097	7.91	28.1763
13	38661	8.01	28.1737
13	39217	8.11	28.171
13	39773	8.21	28.1683
13	40329	8.31	28.1654
13	40885	8.41	28.1626
13	41441	8.51	28.1596
13	41997	8.61	28.1566
13	42553	8.71	28.1535
13	43109	8.81	28.1504
13	43665	8.91	28.1473
13	44229	9.01	28.1441
13	44785	9.11	28.1409
13	45341	9.21	28.1376
13	45897	9.31	28.1343
13	46453	9.41	28.131
13	47009	9.51	28.1277
13	47565	9.61	28.1244
13	48121	9.71	28.121
13	48677	9.81	28.1176
13	49233	9.91	28.1142
13	49797	10.01	28.1108
13	50353	10.11	28.1074
13	50909	10.21	28.104
13	51465	10.31	28.1005
13	52021	10.41	28.0971
13	52577	10.51	28.0937
13	53133	10.61	28.0902
13	53689	10.71	28.0868
13	54245	10.81	28.0834
13	54801	10.91	28.08
13	55365	11.01	28.0766
13	55921	11.11	28.0732
13	56477	11.21	28.0698
13	57033	11.31	28.0665
13	57589	11.41	28.0631
13	58145	11.51	28.0598
13	58701	11.61	28.0564
13	59257	11.71	28.0531
13	59813	11.81	28.0498
13	60369	11.91	28.0466
13	60933	12.01	28.0433
13	61489	12.11	28.0401
13	62045	12.21	28.0369
13	62601	12.31	28.0337
13	63157	12.41	28.0305
13	63713	12.51	28.0274
13	64269	12.61	28.0242
13	64825	12.71	28.0211
13	65381	12.81	28.0181
13	65937	12.91	28.015
13	66501	13.01	28.012
13	67057	13.11	28.009
13	67613	13.21	28.006
13	68169	13.31	28.003
13	68725	13.41	28.0001
13	69281	13.51	27.9972
13	69837	13.61	27.9944
13	70393	13.71	27.9915
13	70949	13.81	27.9887
13	71505	13.91	27.9859
13	72069	14.01	27.9831
13	72625	14.11	27.9804
13	73181	14.21	27.9777
13	73737	14.31	27.975
13	74293	14.41	27.9724
13	74849	14.51	27.9697
13	75405	14.61	27.9671
13	75961	14.71	27.9646
13	76517	14.81	27.962
13	77073	14.91	27.9595
13	77637	15.01	27.957
13	78193	15.11	27.9546
13	78749	15.21	27.9521
13	79305	15.31	27.9497
13	79861	15.41	27.9473
13	80417	15.51	27.945
13	80973	15.61	27.9427
13	81529	15.71	27.9404
13	82085	15.81	27.9381
13	82641	15.91	27.9359
13	83205	16.01	27.9336
13	83761	16.11	27.9315
13	84317	16.21	27.9293
13	84873	16.31	27.9272
13	85429	16.41	27.925
13	85985	16.51	27.923
13	86541	16.61	27.9209
13	87097	16.71	27.9189
13	87653	16.81	27.9169
13	88209	16.91	27.9149
13	88773	17.01	27.9129
13	89329	17.11	27.911
13	89885	17.21	27.9091
13	90441	17.31	27.9072
13	90997	17.41	27.9053
13	91553	17.51	27.9035
13	92109	17.61	27.9017
13	92665	17.71	27.8999
13	93221	17.81	27.8981
13	93777	17.91	27.8964
13	94341	18.01	27.8947
13	94897	18.11	27.893
13	95453	18.21	27.8913
13	96009	18.31	27.8897
13	96565	18.41	27.888
13	97121	18.51	27.8864
13	97677	18.61	27.8848
13	98233	18.71	27.8833
13	98789	18.81	27.8817
13	99345	18.91	27.8802
13	99909	19.01	27.8787
13	100465	19.11	27.8772
13	101021	19.21	27.8758
13	101577	19.31	27.8743
13	102133	19.41	27.8729
13	102689	19.51	27.8715
13	103245	19.61	27.8701
13	103801	19.71	27.8687
13	104357	19.81	27.8674
13	104913	19.91	27.8661
14	234	1.11	96.9402
14	791	1.21	99.7182
14	1347	1.31	102.496
14	1904	1.41	105.275
14	2461	1.51	108.055
14	3017	1.61	110.836
14	3573	1.71	113.618
14	4130	1.81	116.401
14	4686	1.91	119.186
14	5253	2.01	121.972
14	5809	2.11	124.76
14	6365	2.21	127.549
14	6921	2.31	130.34
14	7477	2.41	133.133
14	8033	2.51	135.927
14	8589	2.61	138.723
14	9145	2.71	141.52
14	9701	2.81	144.319
14	10257	2.91	147.119
14	10821	3.01	149.92
14	11377	3.11	152.723
14	11933	3.21	155.527
14	12489	3.31	158.333
14	13045	3.41	161.139
14	13601	3.51	163.947
14	14157	3.61	166.756
14	14713	3.71	169.566
14	15269	3.81	172.376
14	15825	3.91	175.188
14	16389	4.01	178
14	16945	4.11	180.814
14	17501	4.21	183.628
14	18057	4.31	186.442
14	18613	4.41	189.258
14	19169	4.51	192.074
14	19725	4.61	194.89
14	20281	4.71	197.707
14	20837	4.81	200.524
14	21393	4.91	203.342
14	21957	5.01	206.16
14	22513	5.11	208.979
14	23069	5.21	211.798
14	23625	5.31	214.617
14	24181	5.41	217.436
14	24737	5.51	220.256
14	25293	5.61	223.076
14	25849	5.71	225.896
14	26405	5.81	228.716
14	26961	5.91	231.536
14	27525	6.01	234.356
14	28081	6.11	237.176
14	28637	6.21	239.996
14	29193	6.31	242.816
14	29749	6.41	245.637
14	30305	6.51	248.457
14	30861	6.61	251.277
14	31417	6.71	254.097
14	31973	6.81	256.916
14	32529	6.91	259.736
14	33093	7.01	262.556
14	33649	7.11	265.375
14	34205	7.21	268.194
14	34761	7.31	271.014
14	35317	7.41	273.832
14	35873	7.51	276.651
14	36429	7.61	279.47
14	36985	7.71	282.288
14	37541	7.81	285.106
14	38097	7.91	287.924
14	38661	8.01	290.741
14	39217	8.11	293.558
14	39773	8.21	296.375
14	40329	8.31	299.192
14	40885	8.41	302.008
14	41441	8.51	304.824
14	41997	8.61	307.64
14	42553	8.71	310.456
14	43109	8.81	313.271
14	43665	8.91	316.086
14	44229	9.01	318.9
14	44785	9.11	321.714
14	45341	9.21	324.528
14	45897	9.31	327.342
14	46453	9.41	330.155
14	47009	9.51	332.968
14	47565	9.61	335.781
14	48121	9.71	338.593
14	48677	9.81	341.405
14	49233	9.91	344.216
14	49797	10.01	347.028
14	50353	10.11	349.839
14	50909	10.21	352.649
14	51465	10.31	355.459
14	52021	10.41	358.269
14	52577	10.51	361.079
14	53133	10.61	363.888
14	53689	10.71	366.697
14	54245	10.81	369.505
14	54801	10.91	372.313
14	55365	11.01	375.121
14	55921	11.11	377.929
14	56477	11.21	380.736
14	57033	11.31	383.543
14	57589	11.41	386.349
14	58145	11.51	389.155
14	58701	11.61	391.961
14	59257	11.71	394.766
14	59813	11.81	397.572
14	60369	11.91	400.376
14	60933	12.01	403.181
14	61489	12.11	405.985
14	62045	12.21	408.789
14	62601	12.31	411.592
14	63157	12.41	414.396
14	63713	12.51	417.198
14	64269	12.61	420.001
14	64825	12.71	422.803
14	65381	12.81	425.605
14	65937	12.91	428.407
14	66501	13.01	431.208
14	67057	13.11	434.009
14	67613	13.21	436.81
14	68169	13.31	439.61
14	68725	13.41	442.411
14	69281	13.51	445.21
14	69837	13.61	448.01
14	70393	13.71	450.809
14	70949	13.81	453.608
14	71505	13.91	456.407
14	72069	14.01	459.205
14	72625	14.11	462.004
14	73181	14.21	464.801
14	73737	14.31	467.599
14	74293	14.41	470.396
14	74849	14.51	473.193
14	75405	14.61	475.99
14	75961	14.71	478.787
14	76517	14.81	481.583
14	77073	14.91	484.379
14	77637	15.01	487.175
14	78193	15.11	489.971
14	78749	15.21	492.766
14	79305	15.31	495.561
14	79861	15.41	498.356
14	80417	15.51	501.15
14	80973	15.61	503.945
14	81529	15.71	506.739
14	82085	15.81	509.533
14	82641	15.91	512.327
14	83205	16.01	515.12
14	83761	16.11	517.913
14	84317	16.21	520.706
14	84873	16.31	523.499
14	85429	16.41	526.292
14	85985	16.51	529.084
14	86541	16.61	531.876
14	87097	16.71	534.668
14	87653	16.81	537.46
14	88209	16.91	540.252
14	88773	17.01	543.043
14	89329	17.11	545.834
14	89885	17.21	548.625
14	90441	17.31	551.416
14	90997	17.41	554.207
14	91553	17.51	556.997
14	92109	17.61	559.787
14	92665	17.71	562.577
14	93221	17.81	565.367
14	93777	17.91	568.157
14	94341	18.01	570.947
14	94897	18.11	573.736
14	95453	18.21	576.525
14	96009	18.31	579.314
14	96565	18.41	582.103
14	97121	18.51	584.892
14	97677	18.61	587.68
14	98233	18.71	590.469
14	98789	18.81	593.257
14	99345	18.91	596.045
14	99909	19.01	598.833
14	100465	19.11	601.621
14	101021	19.21	604.408
14	101577	19.31	607.196
14	102133	19.41	609.983
14	102689	19.51	612.77
14	103245	19.61	615.558
14	103801	19.71	618.344
14	104357	19.81	621.131
14	104913	19.91	623.918
15	234	1.11	75.2
15	791	1.21	75.2
15	1347	1.31	75.2
15	1904	1.41	75.2
15	2461	1.51	75.2
15	3017	1.61	75.2
15	3573	1.71	75.2
15	4130	1.81	75.2
15	4686	1.91	75.2
15	5253	2.01	75.2
15	5809	2.11	75.2
15	6365	2.21	75.2
15	6921	2.31	75.2
15	7477	2.41	75.2
15	8033	2.51	75.2
15	8589	2.61	75.2
15	9145	2.71	75.2
15	9701	2.81	75.2
15	10257	2.91	75.2
15	10821	3.01	75.2
15	11377	3.11	75.2
15	11933	3.21	75.2
15	12489	3.31	75.2
15	13045	3.41	75.2
15	13601	3.51	75.2
15	14157	3.61	75.2
15	14713	3.71	75.2
15	15269	3.81	75.2
15	15825	3.91	75.2
15	16389	4.01	75.2
15	16945	4.11	75.2
15	17501	4.21	75.2
15	18057	4.31	75.2
15	18613	4.41	75.2
15	19169	4.51	75.2
15	19725	4.61	75.2
15	20281	4.71	75.2
15	20837	4.81	75.2
15	21393	4.91	75.2
15	21957	5.01	75.2
15	22513	5.11	75.2
15	23069	5.21	75.2
15	23625	5.31	75.2
15	24181	5.41	75.2
15	24737	5.51	75.2
15	25293	5.61	75.2
15	25849	5.71	75.2
15	26405	5.81	75.2
15	26961	5.91	75.2
15	27525	6.01	75.2
15	28081	6.11	75.2
15	28637	6.21	75.2
15	29193	6.31	75.2
15	29749	6.41	75.2
15	30305	6.51	75.2
15	30861	6.61	75.2
15	31417	6.71	75.2
15	31973	6.81	75.2
15	32529	6.91	75.2
15	33093	7.01	75.2
15	33649	7.11	75.2
15	34205	7.21	75.2
15	34761	7.31	75.2
15	35317	7.41	75.2
15	35873	7.51	75.2
15	36429	7.61	75.2
15	36985	7.71	75.2
15	37541	7.81	75.2
15	38097	7.91	75.2
15	38661	8.01	75.2
15	39217	8.11	75.2
15	39773	8.21	75.2
15	40329	8.31	75.2
15	40885	8.41	75.2
15	41441	8.51	75.2
15	41997	8.61	75.2
15	42553	8.71	75.2
15	43109	8.81	75.2
15	43665	8.91	75.2
15	44229	9.01	75.2
15	44785	9.11	75.2
15	45341	9.21	75.2
15	45897	9.31	75.2
15	46453	9.41	75.2
15	47009	9.51	75.2
15	47565	9.61	75.2
15	48121	9.71	75.2
15	48677	9.81	75.2
15	49233	9.91	75.2
15	49797	10.01	75.2
15	50353	10.11	75.2
15	50909	10.21	75.2
15	51465	10.31	75.2
15	52021	10.41	75.2
15	52577	10.51	75.2
15	53133	10.61	75.2
15	53689	10.71	75.2
15	54245	10.81	75.2
15	54801	10.91	75.2
15	55365	11.01	75.2
15	55921	11.11	75.2
15	56477	11.21	75.2
15	57033	11.31	75.2
15	57589	11.41	75.2
15	58145	11.51	75.2
15	58701	11.61	75.2
15	59257	11.71	75.2
15	59813	11.81	75.2
15	60369	11.91	75.2
15	60933	12.01	75.2
15	61489	12.11	75.2
15	62045	12.21	75.2
15	62601	12.31	75.2
15	63157	12.41	75.2
15	63713	12.51	75.2
15	64269	12.61	75.2
15	64825	12.71	75.2
15	65381	12.81	75.2
15	65937	12.91	75.2
15	66501	13.01	75.2
15	67057	13.11	75.2
15	67613	13.21	75.2
15	68169	13.31	75.2
15	68725	13.41	75.2
15	69281	13.51	75.2
15	69837	13.61	75.2
15	70393	13.71	75.2
15	70949	13.81	75.2
15	71505	13.91	75.2
15	72069	14.01	75.2
15	72625	14.11	75.2
15	73181	14.21	75.2
15	73737	14.31	75.2
15	74293	14.41	75.2
15	74849	14.51	75.2
15	75405	14.61	75.2
15	75961	14.71	75.2
15	76517	14.81	75.2
15	77073	14.91	75.2
15	77637	15.01	75.2
15	78193	15.11	75.2
15	78749	15.21	75.2
15	79305	15.31	75.2
15	79861	15.41	75.2
15	80417	15.51	75.2
15	80973	15.61	75.2
15	81529	15.71	75.2
15	82085	15.81	75.2
15	82641	15.91	75.2
15	83205	16.01	75.2
15	83761	16.11	75.2
15	84317	16.21	75.2
15	84873	16.31	75.2
15	85429	16.41	75.2
15	85985	16.51	75.2
15	86541	16.61	75.2
15	87097	16.71	75.2
15	87653	16.81	75.2
15	88209	16.91	75.2
15	88773	17.01	75.2
15	89329	17.11	75.2
15	89885	17.21	75.2
15	90441	17.31	75.2
15	90997	17.41	75.2
15	91553	17.51	75.2
15	92109	17.61	75.2
15	92665	17.71	75.2
15	93221	17.81	75.2
15	93777	17.91	75.2
15	94341	18.01	75.2
15	94897	18.11	75.2
15	95453	18.21	75.2
15	96009	18.31	75.2
15	96565	18.41	75.2
15	97121	18.51	75.2
15	97677	18.61	75.2
15	98233	18.71	75.2
15	98789	18.81	75.2
15	99345	18.91	75.2
15	99909	19.01	75.2
15	100465	19.11	75.2
15	101021	19.21	75.2
15	101577	19.31	75.2
15	102133	19.41	75.2
15	102689	19.51	75.2
15	103245	19.61	75.2
15	103801	19.71	75.2
15	104357	19.81	75.2
15	104913	19.91	75.2
16	235	1.11	10.33
16	792	1.21	10.33
16	1348	1.31	10.33
16	1905	1.41	10.3298
16	2462	1.51	10.3292
16	3018	1.61	10.3282
16	3574	1.71	10.3267
16	4131	1.81	10.3244
16	4687	1.91	10.3215
16	5254	2.01	10.3177
16	5810	2.11	10.3131
16	6366	2.21	10.3077
16	6922	2.31	10.3013
16	7478	2.41	10.2941
16	8034	2.51	10.286
16	8590	2.61	10.2769
16	9146	2.71	10.267
16	9702	2.81	10.2561
16	10258	2.91	10.2444
16	10822	3.01	10.2317
16	11378	3.11	10.2182
16	11934	3.21	10.2038
16	12490	3.31	10.1885
16	13046	3.41	10.1725
16	13602	3.51	10.1556
16	14158	3.61	10.1379
16	14714	3.71	10.1195
16	15270	3.81	10.1003
16	15826	3.91	10.0804
16	16390	4.01	10.0597
16	16946	4.11	10.0384
16	17502	4.21	10.0164
16	18058	4.31	9.99372
16	18614	4.41	9.97044
16	19170	4.51	9.94655
16	19726	4.61	9.92208
16	20282	4.71	9.89704
16	20838	4.81	9.87146
16	21394	4.91	9.84536
16	21958	5.01	9.81875
16	22514	5.11	9.79166
16	23070	5.21	9.76411
16	23626	5.31	9.73612
16	24182	5.41	9.70771
16	24738	5.51	9.67889
16	25294	5.61	9.64968
16	25850	5.71	9.62012
16	26406	5.81	9.5902
16	26962	5.91	9.55996
16	27526	6.01	9.5294
16	28082	6.11	9.49855
16	28638	6.21	9.46742
16	29194	6.31	9.43603
16	29750	6.41	9.4044
16	30306	6.51	9.37254
16	30862	6.61	9.34047
16	31418	6.71	9.3082
16	31974	6.81	9.27574
16	32530	6.91	9.24313
16	33094	7.01	9.21035
16	33650	7.11	9.17744
16	34206	7.21	9.14441
16	34762	7.31	9.11126
16	35318	7.41	9.07802
16	35874	7.51	9.04468
16	36430	7.61	9.01128
16	36986	7.71	8.97781
16	37542	7.81	8.94429
16	38098	7.91	8.91073
16	38662	8.01	8.87715
16	39218	8.11	8.84355
16	39774	8.21	8.80994
16	40330	8.31	8.77633
16	40886	8.41	8.74274
16	41442	8.51	8.70917
16	41998	8.61	8.67564
16	42554	8.71	8.64214
16	43110	8.81	8.60869
16	43666	8.91	8.5753
16	44230	9.01	8.54198
16	44786	9.11	8.50873
16	45342	9.21	8.47556
16	45898	9.31	8.44248
16	46454	9.41	8.4095
16	47010	9.51	8.37662
16	47566	9.61	8.34385
16	48122	9.71	8.31119
16	48678	9.81	8.27865
16	49234	9.91	8.24625
16	49798	10.01	8.21397
16	50354	10.11	8.18183
16	50910	10.21	8.14984
16	51466	10.31	8.11799
16	52022	10.41	8.0863
16	52578	10.51	8.05476
16	53134	10.61	8.02339
16	53690	10.71	7.99218
16	54246	10.81	7.96114
16	54802	10.91	7.93028
16	55366	11.01	7.89959
16	55922	11.11	7.86908
16	56478	11.21	7.83876
16	57034	11.31	7.80862
16	57590	11.41	7.77868
16	58146	11.51	7.74892
16	58702	11.61	7.71937
16	59258	11.71	7.69
16	59814	11.81	7.66084
16	60370	11.91	7.63189
16	60934	12.01	7.60313
16	61490	12.11	7.57458
16	62046	12.21	7.54624
16	62602	12.31	7.51811
16	63158	12.41	7.49019
16	63714	12.51	7.46249
16	64270	12.61	7.43499
16	64826	12.71	7.40771
16	65382	12.81	7.38065
16	65938	12.91	7.3538
16	66502	13.01	7.32717
16	67058	13.11	7.30076
16	67614	13.21	7.27457
16	68170	13.31	7.2486
16	68726	13.41	7.22285
16	69282	13.51	7.19732
16	69838	13.61	7.17201
16	70394	13.71	7.14692
16	70950	13.81	7.12205
16	71506	13.91	7.0974
16	72070	14.01	7.07297
16	72626	14.11	7.04877
16	73182	14.21	7.02478
16	73738	14.31	7.00102
16	74294	14.41	6.97747
16	74850	14.51	6.95415
16	75406	14.61	6.93104
16	75962	14.71	6.90816
16	76518	14.81	6.88549
16	77074	14.91	6.86304
16	77638	15.01	6.84081
16	78194	15.11	6.81879
16	78750	15.21	6.79699
16	79306	15.31	6.7754
16	79862	15.41	6.75403
16	80418	15.51	6.73288
16	80974	15.61	6.71193
16	81530	15.71	6.6912
16	82086	15.81	6.67067
16	82642	15.91	6.65036
16	83206	16.01	6.63026
16	83762	16.11	6.61036
16	84318	16.21	6.59067
16	84874	16.31	6.57118
16	85430	16.41	6.5519
16	85986	16.51	6.53283
16	86542	16.61	6.51395
16	87098	16.71	6.49527
16	87654	16.81	6.4768
16	88210	16.91	6.45852
16	88774	17.01	6.44044
16	89330	17.11	6.42255
16	89886	17.21	6.40486
16	90442	17.31	6.38736
16	90998	17.41	6.37005
16	91554	17.51	6.35294
16	92110	17.61	6.33601
16	92666	17.71	6.31927
16	93222	17.81	6.30271
16	93778	17.91	6.28634
16	94342	18.01	6.27015
16	94898	18.11	6.25415
16	95454	18.21	6.23832
16	96010	18.31	6.22267
16	96566	18.41	6.2072
16	97122	18.51	6.19191
16	97678	18.61	6.17679
16	98234	18.71	6.16185
16	98790	18.81	6.14707
16	99346	18.91	6.13247
16	99910	19.01	6.11803
16	100466	19.11	6.10376
16	101022	19.21	6.08966
16	101578	19.31	6.07572
16	102134	19.41	6.06194
16	102690	19.51	6.04833
16	103246	19.61	6.03487
16	103802	19.71	6.02157
16	104358	19.81	6.00843
16	104914	19.91	5.99545
17	235	1.11	0
17	792	1.21	-3.11067e-06
17	1348	1.31	-0.000737724
17	1905	1.41	-0.00324844
17	2462	1.51	-0.00723627
17	3018	1.61	-0.0124311
17	3574	1.71	-0.0186052
17	4131	1.81	-0.0255663
17	4687	1.91	-0.0331518
17	5254	2.01	-0.0412254
17	5810	2.11	-0.0496712
17	6366	2.21	-0.0583919
17	6922	2.31	-0.0673059
17	7478	2.41	-0.0763437
17	8034	2.51	-0.0854469
17	8590	2.61	-0.0945666
17	9146	2.71	-0.103662
17	9702	2.81	-0.112698
17	10258	2.91	-0.121647
17	10822	3.01	-0.130483
17	11378	3.11	-0.139187
17	11934	3.21	-0.147742
17	12490	3.31	-0.156134
17	13046	3.41	-0.164351
17	13602	3.51	-0.172384
17	14158	3.61	-0.180226
17	14714	3.71	-0.18787
17	15270	3.81	-0.195312
17	15826	3.91	-0.202548
17	16390	4.01	-0.209576
17	16946	4.11	-0.216394
17	17502	4.21	-0.222999
17	18058	4.31	-0.229393
17	18614	4.41	-0.235575
17	19170	4.51	-0.241545
17	19726	4.61	-0.247304
17	20282	4.71	-0.252854
17	20838	4.81	-0.258196
17	21394	4.91	-0.263331
17	21958	5.01	-0.268263
17	22514	5.11	-0.272993
17	23070	5.21	-0.277524
17	23626	5.31	-0.281857
17	24182	5.41	-0.285996
17	24738	5.51	-0.289944
17	25294	5.61	-0.293703
17	25850	5.71	-0.297277
17	26406	5.81	-0.300669
17	26962	5.91	-0.303882
17	27526	6.01	-0.306919
17	28082	6.11	-0.309784
17	28638	6.21	-0.312479
17	29194	6.31	-0.315009
17	29750	6.41	-0.317377
17	30306	6.51	-0.319585
17	30862	6.61	-0.321638
17	31418	6.71	-0.323539
17	31974	6.81	-0.325291
17	32530	6.91	-0.326897
17	33094	7.01	-0.328362
17	33650	7.11	-0.329688
17	34206	7.21	-0.330879
17	34762	7.31	-0.331938
17	35318	7.41	-0.332869
17	35874	7.51	-0.333675
17	36430	7.61	-0.334359
17	36986	7.71	-0.334924
17	37542	7.81	-0.335374
17	38098	7.91	-0.335712
17	38662	8.01	-0.335942
17	39218	8.11	-0.336065
17	39774	8.21	-0.336086
17	40330	8.31	-0.336007
17	40886	8.41	-0.335831
17	41442	8.51	-0.335562
17	41998	8.61	-0.335202
17	42554	8.71	-0.334754
17	43110	8.81	-0.334221
17	43666	8.91	-0.333606
17	44230	9.01	-0.33291
17	44786	9.11	-0.332138
17	45342	9.21	-0.331292
17	45898	9.31	-0.330374
17	46454	9.41	-0.329387
17	47010	9.51	-0.328333
17	47566	9.61	-0.327215
[...]
81	87370	16.755177686371	6
81	87926	16.855195130699	6
81	88482	16.95521257547	6
81	89046	17.055243020682	6
81	89602	17.155195466325	6
81	90158	17.255251912396	6
81	90714	17.355191358891	6
81	91270	17.455208805806	6
81	91826	17.555187253134	6
81	92382	17.655230700872	6
81	92938	17.755170149015	6
81	93494	17.855187597557	6
81	94050	17.955257046493	6
81	94614	18.055261495819	6
81	95170	18.155226945533	6
81	95726	18.255257395628	6
81	96282	18.355209846099	6
81	96838	18.455201296942	6
81	97394	18.555218748154	6
81	97950	18.655197199728	6
81	98506	18.755240651662	6
81	99062	18.855219103951	6
81	99618	18.955262556591	6
81	100182	19.055215009577	6
81	100738	19.155232462907	6
81	101294	19.255223916576	6
81	101850	19.355241370577	6
81	102406	19.455219824909	6
81	102962	19.555263279568	6
81	103518	19.655228734551	6
81	104074	19.75524618985	6
81	104630	19.855172645464	6
82	1070	1.255199247056	0.099991338661
82	1627	1.35519058572	0.099991338664
82	2184	1.455168924395	0.099978338675
82	2740	1.555225263095	0.1000563387
82	3296	1.655203601837	0.099978338742
82	3853	1.755181940644	0.099978338807
82	4409	1.855238279539	0.100056338895
82	4966	1.95517761855	0.099939339011
82	5532	2.055246957701	0.100069339151
82	6088	2.155251297026	0.100004339325
82	6644	2.255203636552	0.099952339526
82	7200	2.355168976311	0.099965339759
82	7756	2.455212316332	0.100043340021
82	8312	2.555255656646	0.100043340314
82	8868	2.655259997283	0.100004340637
82	9424	2.755238338273	0.09997834099
82	9980	2.855255679646	0.100017341373
82	10536	2.95526002143	0.100004341784
82	11100	3.055199363653	0.099939342223
82	11656	3.155164706343	0.09996534269
82	12212	3.255195049525	0.100030343182
82	12768	3.355199393225	0.1000043437
82	13324	3.45525573747	0.100056344245
82	13880	3.555221082282	0.099965344812
82	14436	3.655199427684	0.099978345402
82	14992	3.7552167737	0.100017346016
82	15548	3.855221120351	0.100004346651
82	16104	3.955264467655	0.100043347304
82	16668	4.055216815634	0.099952347979
82	17224	4.155260164307	0.100043348673
82	17780	4.25519951369	0.099939349383
82	18336	4.355190863801	0.099991350111
82	18892	4.455234214655	0.100043350854
82	19448	4.55526456627	0.100030351615
82	20004	4.655229918659	0.099965352389
82	20560	4.755208271837	0.099978353178
82	21116	4.855225625815	0.100017353978
82	21672	4.955229980605	0.10000435479
82	22236	5.05523433622	0.100004355615
82	22792	5.15519969267	0.09996535645
82	23348	5.255204049966	0.100004357296
82	23904	5.355234408117	0.100030358151
82	24460	5.455186767133	0.099952359016
82	25016	5.55521712702	0.100030359887
82	25572	5.655208487786	0.099991360766
82	26128	5.755199849439	0.099991361653
82	26684	5.855243211986	0.100043362547
82	27240	5.955247575433	0.100004363447
82	27804	6.055264939784	0.100017364351
82	28360	6.155165305045	0.099900365261
82	28916	6.255247671221	0.100082366176
82	29472	6.355239038314	0.099991367093
82	30028	6.455256406328	0.100017368014
82	30584	6.555169775267	0.099913368939
82	31140	6.655187145133	0.100017369866
82	31696	6.755217515928	0.100030370795
82	32252	6.855208887653	0.099991371725
82	32808	6.955252260311	0.100043372658
82	33372	7.055178633903	0.099926373592
82	33928	7.155248008428	0.100069374525
82	34484	7.255174383888	0.09992637546
82	35040	7.355217760282	0.100043376394
82	35596	7.45520913761	0.099991377328
82	36152	7.555174515871	0.099965378261
82	36708	7.655165895065	0.099991379194
82	37264	7.75524827519	0.100082380125
82	37820	7.855187656244	0.099939381054
82	38376	7.955218038226	0.100030381982
82	38940	8.055209421133	0.099991382907
82	39496	8.155226804965	0.100017383832
82	40052	8.255192189718	0.099965384753
82	40608	8.355235575389	0.100043385671
82	41164	8.455213961976	0.099978386587
82	41720	8.555192349476	0.0999783875
82	42276	8.655209737884	0.100017388408
82	42832	8.755253127198	0.100043389314
82	43388	8.855205517415	0.099952390217
82	43944	8.95518390853	0.099978391115
82	44508	9.055227300538	0.100043392008
82	45064	9.155166693437	0.099939392899
82	45620	9.255262087222	0.100095393785
82	46176	9.355266481889	0.100004394667
82	46732	9.455244877431	0.099978395542
82	47288	9.555223273846	0.099978396415
82	47844	9.655188671129	0.099965397283
82	48400	9.755167069274	0.099978398145
82	48956	9.855249468277	0.100082399003
82	49512	9.955162868131	0.099913399854
82	50076	10.055180268832	0.100017400701
82	50632	10.155210670374	0.100030401542
82	51188	10.255254072754	0.10004340238
82	51744	10.355232475965	0.099978403211
82	52300	10.455210879999	0.099978404034
82	52856	10.555189284853	0.099978404854
82	53412	10.655193690521	0.100004405668
82	53968	10.755263096996	0.100069406475
82	54524	10.855254504275	0.099991407279
82	55080	10.955219912349	0.099965408074
82	55644	11.055211321215	0.099991408866
82	56200	11.155228730866	0.100017409651
82	56756	11.255207141294	0.099978410428
82	57312	11.355185552494	0.0999784112
82	57868	11.455202964462	0.100017411968
82	58424	11.55519437719	0.099991412728
82	58980	11.655211790671	0.100017413481
82	59536	11.755242204902	0.100030414231
82	60092	11.855233619874	0.099991414972
82	60648	11.955199035581	0.099965415707
82	61212	12.055255452017	0.100056416436
82	61768	12.155194869176	0.099939417159
82	62324	12.255264287053	0.100069417877
82	62880	12.355229705641	0.099965418588
82	63436	12.455182124932	0.099952419291
82	63992	12.555251544923	0.100069419991
82	64548	12.655177965605	0.099926420682
82	65104	12.755234386973	0.100056421368
82	65660	12.855186809021	0.099952422048
82	66216	12.955243231741	0.10005642272
82	66780	13.055208655129	0.099965423388
82	67336	13.155226079178	0.100017424049
82	67892	13.255256503881	0.100030424703
82	68448	13.355208929233	0.099952425352
82	69004	13.455252355226	0.100043425993
82	69560	13.555217781855	0.099965426629
82	70116	13.655261209114	0.100043427259
82	70672	13.755226636997	0.099965427883
82	71228	13.855192065497	0.0999654285
82	71784	13.955248494608	0.100056429111
82	72348	14.055265924324	0.100017429716
82	72904	14.155231354641	0.099965430317
82	73460	14.255196785552	0.099965430911
82	74016	14.355240217048	0.100043431496
82	74572	14.455231649127	0.099991432079
82	75128	14.555236081781	0.100004432654
82	75684	14.655175515005	0.099939433224
82	76240	14.755179948792	0.100004433787
82	76796	14.855184383138	0.100004434346
82	77352	14.955188818035	0.100004434897
82	77916	15.055193253479	0.100004435444
82	78472	15.155236689463	0.100043435984
82	79028	15.255202125983	0.09996543652
82	79584	15.355180563031	0.099978437048
82	80140	15.455185000602	0.100004437571
82	80696	15.555241438692	0.10005643809
82	81252	15.655245877294	0.100004438602
82	81808	15.755198316403	0.099952439109
82	82364	15.855176756013	0.09997843961
82	82920	15.955168196119	0.099991440106
82	83484	16.055263636715	0.100095440596
82	84040	16.155216077796	0.099952441081
82	84596	16.255220519356	0.10000444156
82	85152	16.355185961391	0.099965442035
82	85708	16.455164403895	0.099978442504
82	86264	16.555233846863	0.100069442968
82	86820	16.65525129029	0.100017443427
82	87376	16.755177734171	0.099926443881
82	87932	16.855195178499	0.100017444328
82	88488	16.95521262327	0.100017444771
82	89052	17.055243068481	0.100030445211
82	89608	17.155195514125	0.099952445644
82	90164	17.255251960196	0.100056446071
82	90720	17.355191406691	0.099939446495
82	91276	17.455208853605	0.100017446914
82	91832	17.555187300934	0.099978447329
82	92388	17.655230748672	0.100043447738
82	92944	17.755170196814	0.099939448142
82	93500	17.855187645357	0.100017448543
82	94056	17.955257094293	0.100069448936
82	94620	18.055261543619	0.100004449326
82	95176	18.155226993332	0.099965449713
82	95732	18.255257443428	0.100030450096
82	96288	18.355209893899	0.099952450471
82	96844	18.455201344742	0.099991450843
82	97400	18.555218795953	0.100017451211
82	97956	18.655197247528	0.099978451575
82	98512	18.755240699462	0.100043451934
82	99068	18.855219151751	0.099978452289
82	99624	18.95526260439	0.100043452639
82	100188	19.055215057377	0.099952452987
82	100744	19.155232510707	0.10001745333
82	101300	19.255223964375	0.099991453668
82	101856	19.355241418377	0.100017454002
82	102412	19.455219872709	0.099978454332
82	102968	19.555263327368	0.100043454659
82	103524	19.65522878235	0.099965454982
82	104080	19.75524623765	0.1000174553
82	104636	19.855172693264	0.099926455614
83	1070	1.255199247056	7
83	1627	1.35519058572	7
83	2184	1.455168924395	7
83	2740	1.555225263095	7
83	3296	1.655203601837	7
83	3853	1.755181940644	7
83	4409	1.855238279539	7
83	4966	1.95517761855	7
83	5532	2.055246957701	7
83	6088	2.155251297026	7
83	6644	2.255203636552	7
83	7200	2.355168976311	7
83	7756	2.455212316332	7
83	8312	2.555255656646	7
83	8868	2.655259997283	7
83	9424	2.755238338273	7
83	9980	2.855255679646	7
83	10536	2.95526002143	7
83	11100	3.055199363653	7
83	11656	3.155164706343	7
83	12212	3.255195049525	7
83	12768	3.355199393225	7
83	13324	3.45525573747	7
83	13880	3.555221082282	7
83	14436	3.655199427684	7
83	14992	3.7552167737	7
83	15548	3.855221120351	7
83	16104	3.955264467655	7
83	16668	4.055216815634	7
83	17224	4.155260164307	7
83	17780	4.25519951369	7
83	18336	4.355190863801	7
83	18892	4.455234214655	7
83	19448	4.55526456627	7
83	20004	4.655229918659	7
83	20560	4.755208271837	7
83	21116	4.855225625815	7
83	21672	4.955229980605	7
83	22236	5.05523433622	7
83	22792	5.15519969267	7
83	23348	5.255204049966	7
83	23904	5.355234408117	7
83	24460	5.455186767133	7
83	25016	5.55521712702	7
83	25572	5.655208487786	7
83	26128	5.755199849439	7
83	26684	5.855243211986	7
83	27240	5.955247575433	7
83	27804	6.055264939784	7
83	28360	6.155165305045	7
83	28916	6.255247671221	7
83	29472	6.355239038314	7
83	30028	6.455256406328	7
83	30584	6.555169775267	7
83	31140	6.655187145133	7
83	31696	6.755217515928	7
83	32252	6.855208887653	7
83	32808	6.955252260311	7
83	33372	7.055178633903	7
83	33928	7.155248008428	7
83	34484	7.255174383888	7
83	35040	7.355217760282	7
83	35596	7.45520913761	7
83	36152	7.555174515871	7
83	36708	7.655165895065	7
83	37264	7.75524827519	7
83	37820	7.855187656244	7
83	38376	7.955218038226	7
83	38940	8.055209421133	7
83	39496	8.155226804965	7
83	40052	8.255192189718	7
83	40608	8.355235575389	7
83	41164	8.455213961976	7
83	41720	8.555192349476	7
83	42276	8.655209737884	7
83	42832	8.755253127198	7
83	43388	8.855205517415	7
83	43944	8.95518390853	7
83	44508	9.055227300538	7
83	45064	9.155166693437	7
83	45620	9.255262087222	7
83	46176	9.355266481889	7
83	46732	9.455244877431	7
83	47288	9.555223273846	7
83	47844	9.655188671129	7
83	48400	9.755167069274	7
83	48956	9.855249468277	7
83	49512	9.955162868131	7
83	50076	10.055180268832	7
83	50632	10.155210670374	7
83	51188	10.255254072754	7
83	51744	10.355232475965	7
83	52300	10.455210879999	7
83	52856	10.555189284853	7
83	53412	10.655193690521	7
83	53968	10.755263096996	7
83	54524	10.855254504275	7
83	55080	10.955219912349	7
83	55644	11.055211321215	7
83	56200	11.155228730866	7
83	56756	11.255207141294	7
83	57312	11.355185552494	7
83	57868	11.455202964462	7
83	58424	11.55519437719	7
83	58980	11.655211790671	7
83	59536	11.755242204902	7
83	60092	11.855233619874	7
83	60648	11.955199035581	7
83	61212	12.055255452017	7
83	61768	12.155194869176	7
83	62324	12.255264287053	7
83	62880	12.355229705641	7
83	63436	12.455182124932	7
83	63992	12.555251544923	7
83	64548	12.655177965605	7
83	65104	12.755234386973	7
83	65660	12.855186809021	7
83	66216	12.955243231741	7
83	66780	13.055208655129	7
83	67336	13.155226079178	7
83	67892	13.255256503881	7
83	68448	13.355208929233	7
83	69004	13.455252355226	7
83	69560	13.555217781855	7
83	70116	13.655261209114	7
83	70672	13.755226636997	7
83	71228	13.855192065497	7
83	71784	13.955248494608	7
83	72348	14.055265924324	7
83	72904	14.155231354641	7
83	73460	14.255196785552	7
83	74016	14.355240217048	7
83	74572	14.455231649127	7
83	75128	14.555236081781	7
83	75684	14.655175515005	7
83	76240	14.755179948792	7
83	76796	14.855184383138	7
83	77352	14.955188818035	7
83	77916	15.055193253479	7
83	78472	15.155236689463	7
83	79028	15.255202125983	7
83	79584	15.355180563031	7
83	80140	15.455185000602	7
83	80696	15.555241438692	7
83	81252	15.655245877294	7
83	81808	15.755198316403	7
83	82364	15.855176756013	7
83	82920	15.955168196119	7
83	83484	16.055263636715	7
83	84040	16.155216077796	7
83	84596	16.255220519356	7
83	85152	16.355185961391	7
83	85708	16.455164403895	7
83	86264	16.555233846863	7
83	86820	16.65525129029	7
83	87376	16.755177734171	7
83	87932	16.855195178499	7
83	88488	16.95521262327	7
83	89052	17.055243068481	7
83	89608	17.155195514125	7
83	90164	17.255251960196	7
83	90720	17.355191406691	7
83	91276	17.455208853605	7
83	91832	17.555187300934	7
83	92388	17.655230748672	7
83	92944	17.755170196814	7
83	93500	17.855187645357	7
83	94056	17.955257094293	7
83	94620	18.055261543619	7
83	95176	18.155226993332	7
83	95732	18.255257443428	7
83	96288	18.355209893899	7
83	96844	18.455201344742	7
83	97400	18.555218795953	7
83	97956	18.655197247528	7
83	98512	18.755240699462	7
83	99068	18.855219151751	7
83	99624	18.95526260439	7
83	100188	19.055215057377	7
83	100744	19.155232510707	7
83	101300	19.255223964375	7
83	101856	19.355241418377	7
83	102412	19.455219872709	7
83	102968	19.555263327368	7
83	103524	19.65522878235	7
83	104080	19.75524623765	7
83	104636	19.855172693264	7
84	5108	2	0
84	10678	3	0
84	16246	4	0
84	21814	5	0
84	27382	6	0
84	32950	7	0
84	38518	8	0
84	44086	9	0
84	49654	10	0
84	55222	11	0
84	60790	12	0
84	66358	13	0
84	71926	14	0
84	77494	15	0
84	83062	16	0
84	88630	17	0
84	94198	18	0
84	99766	19	0
85	5108	2	0.034729
85	10678	3	0.03969
85	16246	4	0.03969
85	21814	5	0.03969
85	27382	6	0.03969
85	32950	7	0.03969
85	38518	8	0.03969
85	44086	9	0.03969
85	49654	10	0.03969
85	55222	11	0.03969
85	60790	12	0.03969
85	66358	13	0.03969
85	71926	14	0.03969
85	77494	15	0.03969
85	83062	16	0.03969
85	88630	17	0.03969
85	94198	18	0.03969
85	99766	19	0.03969
86	5108	2	0
86	10678	3	0
86	16246	4	0
86	21814	5	0
86	27382	6	0
86	32950	7	0
86	38518	8	0
86	44086	9	0
86	49654	10	0
86	55222	11	0
86	60790	12	0
86	66358	13	0
86	71926	14	0
86	77494	15	0
86	83062	16	0
86	88630	17	0
86	94198	18	0
86	99766	19	0
87	5109	2	1
87	10679	3	1
87	16247	4	1
87	21815	5	1
87	27383	6	1
87	32951	7	1
87	38519	8	1
87	44087	9	1
87	49655	10	1
87	55223	11	1
87	60791	12	1
87	66359	13	1
87	71927	14	1
87	77495	15	1
87	83063	16	1
87	88631	17	1
87	94199	18	1
87	99767	19	1
88	5109	2	0.034729
88	10679	3	0.03969
88	16247	4	0.03969
88	21815	5	0.03969
88	27383	6	0.03969
88	32951	7	0.03969
88	38519	8	0.03969
88	44087	9	0.03969
88	49655	10	0.03969
88	55223	11	0.03969
88	60791	12	0.03969
88	66359	13	0.03969
88	71927	14	0.03969
88	77495	15	0.03969
88	83063	16	0.03969
88	88631	17	0.03969
88	94199	18	0.03969
88	99767	19	0.03969
89	5109	2	0
89	10679	3	0
89	16247	4	0
89	21815	5	0
89	27383	6	0
89	32951	7	0
89	38519	8	0
89	44087	9	0
89	49655	10	0
89	55223	11	0
89	60791	12	0
89	66359	13	0
89	71927	14	0
89	77495	15	0
89	83063	16	0
89	88631	17	0
89	94199	18	0
89	99767	19	0
90	5110	2	2
90	10680	3	2
90	16248	4	2
90	21816	5	2
90	27384	6	2
90	32952	7	2
90	38520	8	2
90	44088	9	2
90	49656	10	2
90	55224	11	2
90	60792	12	2
90	66360	13	2
90	71928	14	2
90	77496	15	2
90	83064	16	2
90	88632	17	2
90	94200	18	2
90	99768	19	2
91	5110	2	0.034729
91	10680	3	0.03969
91	16248	4	0.03969
91	21816	5	0.03969
91	27384	6	0.03969
91	32952	7	0.03969
91	38520	8	0.03969
91	44088	9	0.03969
91	49656	10	0.03969
91	55224	11	0.03969
91	60792	12	0.03969
91	66360	13	0.03969
91	71928	14	0.03969
91	77496	15	0.03969
91	83064	16	0.03969
91	88632	17	0.03969
91	94200	18	0.03969
91	99768	19	0.03969
92	5110	2	0
92	10680	3	0
92	16248	4	0
92	21816	5	0
92	27384	6	0
92	32952	7	0
92	38520	8	0
92	44088	9	0
92	49656	10	0
92	55224	11	0
92	60792	12	0
92	66360	13	0
92	71928	14	0
92	77496	15	0
92	83064	16	0
92	88632	17	0
92	94200	18	0
92	99768	19	0
93	5111	2	3
93	10681	3	3
93	16249	4	3
93	21817	5	3
93	27385	6	3
93	32953	7	3
93	38521	8	3
93	44089	9	3
93	49657	10	3
93	55225	11	3
93	60793	12	3
93	66361	13	3
93	71929	14	3
93	77497	15	3
93	83065	16	3
93	88633	17	3
93	94201	18	3
93	99769	19	3
94	5111	2	0.034728
94	10681	3	0.03969
94	16249	4	0.03969
94	21817	5	0.03969
94	27385	6	0.03969
94	32953	7	0.03969
94	38521	8	0.03969
94	44089	9	0.03969
94	49657	10	0.03969
94	55225	11	0.03969
94	60793	12	0.03969
94	66361	13	0.03969
94	71929	14	0.03969
94	77497	15	0.03969
94	83065	16	0.03969
94	88633	17	0.03969
94	94201	18	0.03969
94	99769	19	0.03969
95	5111	2	0
95	10681	3	0
95	16249	4	0
95	21817	5	0
95	27385	6	0
95	32953	7	0
95	38521	8	0
95	44089	9	0
95	49657	10	0
95	55225	11	0
95	60793	12	0
95	66361	13	0
95	71929	14	0
95	77497	15	0
95	83065	16	0
95	88633	17	0
95	94201	18	0
95	99769	19	0
96	5112	2	4
96	10682	3	4
96	16250	4	4
96	21818	5	4
96	27386	6	4
96	32954	7	4
96	38522	8	4
96	44090	9	4
96	49658	10	4
96	55226	11	4
96	60794	12	4
96	66362	13	4
96	71930	14	4
96	77498	15	4
96	83066	16	4
96	88634	17	4
96	94202	18	4
96	99770	19	4
97	5112	2	0.034729
97	10682	3	0.03969
97	16250	4	0.03969
97	21818	5	0.03969
97	27386	6	0.03969
97	32954	7	0.03969
97	38522	8	0.03969
97	44090	9	0.03969
97	49658	10	0.03969
97	55226	11	0.03969
97	60794	12	0.03969
97	66362	13	0.03969
97	71930	14	0.03969
97	77498	15	0.03969
97	83066	16	0.03969
97	88634	17	0.03969
97	94202	18	0.03969
97	99770	19	0.03969
98	5112	2	0
98	10682	3	0
98	16250	4	0
98	21818	5	0
98	27386	6	0
98	32954	7	0
98	38522	8	0
98	44090	9	0
98	49658	10	0
98	55226	11	0
98	60794	12	0
98	66362	13	0
98	71930	14	0
98	77498	15	0
98	83066	16	0
98	88634	17	0
98	94202	18	0
98	99770	19	0
99	5113	2	5
99	10683	3	5
99	16251	4	5
99	21819	5	5
99	27387	6	5
99	32955	7	5
99	38523	8	5
99	44091	9	5
99	49659	10	5
99	55227	11	5
99	60795	12	5
99	66363	13	5
99	71931	14	5
99	77499	15	5
99	83067	16	5
99	88635	17	5
99	94203	18	5
99	99771	19	5
100	5113	2	0.034728
100	10683	3	0.03969
100	16251	4	0.03969
100	21819	5	0.03969
100	27387	6	0.03969
100	32955	7	0.03969
100	38523	8	0.03969
100	44091	9	0.03969
100	49659	10	0.03969
100	55227	11	0.03969
100	60795	12	0.03969
100	66363	13	0.03969
100	71931	14	0.03969
100	77499	15	0.03969
100	83067	16	0.03969
100	88635	17	0.03969
100	94203	18	0.03969
100	99771	19	0.03969
101	5113	2	0
101	10683	3	0
101	16251	4	0
101	21819	5	0
101	27387	6	0
101	32955	7	0
101	38523	8	0
101	44091	9	0
101	49659	10	0
101	55227	11	0
101	60795	12	0
101	66363	13	0
101	71931	14	0
101	77499	15	0
101	83067	16	0
101	88635	17	0
101	94203	18	0
101	99771	19	0
102	5114	2	6
102	10684	3	6
102	16252	4	6
102	21820	5	6
102	27388	6	6
102	32956	7	6
102	38524	8	6
102	44092	9	6
102	49660	10	6
102	55228	11	6
102	60796	12	6
102	66364	13	6
102	71932	14	6
102	77500	15	6
102	83068	16	6
102	88636	17	6
102	94204	18	6
102	99772	19	6
103	5114	2	0.034729
103	10684	3	0.03969
103	16252	4	0.03969
103	21820	5	0.03969
103	27388	6	0.03969
103	32956	7	0.03969
103	38524	8	0.03969
103	44092	9	0.03969
103	49660	10	0.03969
103	55228	11	0.03969
103	60796	12	0.03969
103	66364	13	0.03969
103	71932	14	0.03969
103	77500	15	0.03969
103	83068	16	0.03969
103	88636	17	0.03969
103	94204	18	0.03969
103	99772	19	0.03969
104	5114	2	0
104	10684	3	0
104	16252	4	0
104	21820	5	0
104	27388	6	0
104	32956	7	0
104	38524	8	0
104	44092	9	0
104	49660	10	0
104	55228	11	0
104	60796	12	0
104	66364	13	0
104	71932	14	0
104	77500	15	0
104	83068	16	0
104	88636	17	0
104	94204	18	0
104	99772	19	0
105	5115	2	7
105	10685	3	7
105	16253	4	7
105	21821	5	7
105	27389	6	7
105	32957	7	7
105	38525	8	7
105	44093	9	7
105	49661	10	7
105	55229	11	7
105	60797	12	7
105	66365	13	7
105	71933	14	7
105	77501	15	7
105	83069	16	7
105	88637	17	7
105	94205	18	7
105	99773	19	7
106	5115	2	0.034729
106	10685	3	0.03969
106	16253	4	0.03969
106	21821	5	0.03969
106	27389	6	0.03969
106	32957	7	0.03969
106	38525	8	0.03969
106	44093	9	0.03969
106	49661	10	0.03969
106	55229	11	0.03969
106	60797	12	0.03969
106	66365	13	0.03969
106	71933	14	0.03969
106	77501	15	0.03969
106	83069	16	0.03969
106	88637	17	0.03969
106	94205	18	0.03969
106	99773	19	0.03969
107	5115	2	0
107	10685	3	0
107	16253	4	0
107	21821	5	0
107	27389	6	0
107	32957	7	0
107	38525	8	0
107	44093	9	0
107	49661	10	0
107	55229	11	0
107	60797	12	0
107	66365	13	0
107	71933	14	0
107	77501	15	0
107	83069	16	0
107	88637	17	0
107	94205	18	0
107	99773	19	0
