version 2
run SingleLaneMergeNoAI-0-20180823-11:10:05-7422
attr configname SingleLaneMergeNoAI
attr datetime 20180823-11:10:05
attr experiment SingleLaneMergeNoAI
attr inifile omnetpp.ini
attr iterationvars "$nCars=4, $platoonSize=4, $nLanes=1, $ploegH=0.5, $controller=0, $sController=\"ACC\", $headway=0.3, $leaderHeadway=1.2, $leaderSpeed=100, $beaconInterval=0.1, $priority=4, $packetSize=200, $0=2, $1=0.3"
attr iterationvarsf nCars=4,platoonSize=4,nLanes=1,ploegH=0.5,controller=0,sController=ACC,headway=0.3,leaderHeadway=1.2,leaderSpeed=100,beaconInterval=0.1,priority=4,packetSize=200,2,0.3-
attr measurement "$nCars=4, $platoonSize=4, $nLanes=1, $ploegH=0.5, $controller=0, $sController=\"ACC\", $headway=0.3, $leaderHeadway=1.2, $leaderSpeed=100, $beaconInterval=0.1, $priority=4, $packetSize=200, $0=2, $1=0.3"
attr network veinsbdi.simulations.simpleLaneMerge.LaneMergeScenario
attr processid 7422
attr repetition 0
attr replication #0
attr resultdir results
attr runnumber 0
attr seedset 0
itervar beaconInterval 0.1
itervar controller 0
itervar headway 0.3
itervar leaderHeadway 1.2
itervar leaderSpeed 100
itervar nCars 4
itervar nLanes 1
itervar packetSize 200
itervar platoonSize 4
itervar ploegH 0.5
itervar priority 4
itervar sController "\"ACC\""
param *.node[*].appl_type "\"GeneralPlatooningApp\""
param *.node[*].appl.joinManeuver "\"JoinAtBack\""
param *.manager.useGui true
param *.node[*].scenario_type "\"veinsbdi.scenarios.LaneMergeScenario\""
param *.playgroundSizeX 65000m
param *.playgroundSizeY 25000m
param *.playgroundSizeZ 50m
param **.debug false
param **.coreDebug false
param *.annotations.draw false
param *.obstacles.debug false
param *.world.useTorus false
param *.world.use2D false
param *.*.updateInterval 0.01s
param *.manager.host "\"localhost\""
param *.manager.moduleType "\"vtypeauto=org.car2x.veins.modules.application.platooning.PlatoonCar vtypemerger=org.car2x.veins.modules.application.platooning.PlatoonCar\""
param *.manager.moduleName "\"vtypeauto=node vtypemerger=merger\""
param *.manager.moduleDisplayString "\"\""
param *.manager.autoShutdown true
param *.manager.margin 25
param *.connectionManager.sendDirect true
param *.connectionManager.maxInterfDist 2600m
param *.connectionManager.drawMaxIntfDist false
param *.**.nic.mac1609_4.useServiceChannel false
param *.**.nic.mac1609_4.txPower 100mW
param *.**.nic.mac1609_4.bitrate 6Mbps
param *.**.nic.phy80211p.sensitivity -94dBm
param *.**.nic.phy80211p.maxTXPower 100mW
param *.**.nic.phy80211p.useThermalNoise true
param *.**.nic.phy80211p.thermalNoise -95dBm
param *.**.nic.phy80211p.decider "xmldoc(\"config.xml\")"
param *.**.nic.phy80211p.analogueModels "xmldoc(\"config.xml\")"
param *.**.nic.phy80211p.usePropagationDelay true
param *.node[*].mobility.x 0
param *.node[*].mobility.y 0
param *.node[*].mobility.z 1.895
param **.seed 0
param *.manager.configFile "\"./sumocfg/slm.sumo.cfg\""
param **.numberOfCars 4
param **.numberOfCarsPerPlatoon 4
param **.numberOfLanes 1
param *.node[*].helper_type "\"LocalPlatoonPositionHelper\""
param *.node[*].scenario.caccC1 0.5
param *.node[*].scenario.caccXi 1
param *.node[*].scenario.caccOmegaN "0.2 Hz"
param *.node[*].scenario.engineTau "0.5 s"
param *.node[*].scenario.ploegH 0.5s
param *.node[*].scenario.ploegKp 0.2
param *.node[*].scenario.ploegKd 0.7
param *.node[*].scenario.useRealisticEngine false
param *.node[*].scenario.useControllerAcceleration true
param **.numericController 0
param *.node[*].scenario.controller "\"ACC\""
param **.headway 0.3s
param *.node[*].scenario.accHeadway 0.3s
param *.node[*].scenario.leaderHeadway 1.2s
param *.node[*].scenario.leaderSpeed 100kmph
param *.node[*].protocol_type "\"SimplePlatooningBeaconing\""
param *.node[*].prot.beaconingInterval 0.1s
param *.node[*].prot.priority 4
param *.node[*].prot.packetSize 200
param *.node[*].unicast.packetLossRate 0
param **.traffic_type "\"veinsbdi.traffic.LaneMergeTrafficManager\""
param **.traffic.platoonInsertTime "1 s"
param **.traffic.platoonInsertSpeed 100kmph
param **.traffic.nCars 4
param **.traffic.platoonSize 4
param **.traffic.nLanes 1
param **.traffic.platooningVType "\"vtypeauto\""
param **.traffic.platoonInsertDistance 2m
param **.traffic.platoonInsertHeadway 0.3s
param **.traffic.platoonLeaderHeadway 1.2s

vector 0 LaneMergeScenario.node[0].appl distance ETV
vector 1 LaneMergeScenario.node[0].appl relativeSpeed ETV
vector 2 LaneMergeScenario.node[0].appl nodeId ETV
vector 3 LaneMergeScenario.node[0].appl acceleration ETV
vector 4 LaneMergeScenario.node[0].appl controllerAcceleration ETV
vector 5 LaneMergeScenario.node[0].appl speed ETV
vector 6 LaneMergeScenario.node[0].appl posx ETV
vector 7 LaneMergeScenario.node[0].appl posy ETV
vector 8 LaneMergeScenario.node[1].appl distance ETV
vector 9 LaneMergeScenario.node[1].appl relativeSpeed ETV
vector 10 LaneMergeScenario.node[1].appl nodeId ETV
vector 11 LaneMergeScenario.node[1].appl acceleration ETV
vector 12 LaneMergeScenario.node[1].appl controllerAcceleration ETV
vector 13 LaneMergeScenario.node[1].appl speed ETV
vector 14 LaneMergeScenario.node[1].appl posx ETV
vector 15 LaneMergeScenario.node[1].appl posy ETV
vector 16 LaneMergeScenario.node[2].appl distance ETV
vector 17 LaneMergeScenario.node[2].appl relativeSpeed ETV
vector 18 LaneMergeScenario.node[2].appl nodeId ETV
vector 19 LaneMergeScenario.node[2].appl acceleration ETV
vector 20 LaneMergeScenario.node[2].appl controllerAcceleration ETV
vector 21 LaneMergeScenario.node[2].appl speed ETV
vector 22 LaneMergeScenario.node[2].appl posx ETV
vector 23 LaneMergeScenario.node[2].appl posy ETV
vector 24 LaneMergeScenario.node[3].appl distance ETV
vector 25 LaneMergeScenario.node[3].appl relativeSpeed ETV
vector 26 LaneMergeScenario.node[3].appl nodeId ETV
vector 27 LaneMergeScenario.node[3].appl acceleration ETV
vector 28 LaneMergeScenario.node[3].appl controllerAcceleration ETV
vector 29 LaneMergeScenario.node[3].appl speed ETV
vector 30 LaneMergeScenario.node[3].appl posx ETV
vector 31 LaneMergeScenario.node[3].appl posy ETV
vector 32 LaneMergeScenario.node[3].prot frontDelay ETV
vector 33 LaneMergeScenario.node[3].prot frontDelayId ETV
vector 34 LaneMergeScenario.node[2].prot frontDelay ETV
vector 35 LaneMergeScenario.node[2].prot frontDelayId ETV
vector 36 LaneMergeScenario.node[1].prot leaderDelay ETV
vector 37 LaneMergeScenario.node[1].prot leaderDelayId ETV
vector 38 LaneMergeScenario.node[1].prot frontDelay ETV
vector 39 LaneMergeScenario.node[1].prot frontDelayId ETV
vector 40 LaneMergeScenario.node[2].prot leaderDelay ETV
vector 41 LaneMergeScenario.node[2].prot leaderDelayId ETV
vector 42 LaneMergeScenario.node[3].prot leaderDelay ETV
vector 43 LaneMergeScenario.node[3].prot leaderDelayId ETV
vector 44 LaneMergeScenario.node[0].prot nodeId ETV
vector 45 LaneMergeScenario.node[0].prot busyTime ETV
vector 46 LaneMergeScenario.node[0].prot collisions ETV
vector 47 LaneMergeScenario.node[1].prot nodeId ETV
vector 48 LaneMergeScenario.node[1].prot busyTime ETV
vector 49 LaneMergeScenario.node[1].prot collisions ETV
vector 50 LaneMergeScenario.node[2].prot nodeId ETV
vector 51 LaneMergeScenario.node[2].prot busyTime ETV
vector 52 LaneMergeScenario.node[2].prot collisions ETV
vector 53 LaneMergeScenario.node[3].prot nodeId ETV
vector 54 LaneMergeScenario.node[3].prot busyTime ETV
vector 55 LaneMergeScenario.node[3].prot collisions ETV
vector 56 LaneMergeScenario.node[4].appl distance ETV
vector 57 LaneMergeScenario.node[4].appl relativeSpeed ETV
vector 58 LaneMergeScenario.node[4].appl nodeId ETV
vector 59 LaneMergeScenario.node[4].appl acceleration ETV
vector 60 LaneMergeScenario.node[4].appl controllerAcceleration ETV
vector 61 LaneMergeScenario.node[4].appl speed ETV
vector 62 LaneMergeScenario.node[4].appl posx ETV
vector 63 LaneMergeScenario.node[4].appl posy ETV
vector 64 LaneMergeScenario.node[4].prot nodeId ETV
vector 65 LaneMergeScenario.node[4].prot busyTime ETV
vector 66 LaneMergeScenario.node[4].prot collisions ETV
0	228	1.11	-1
0	388	1.21	-1
0	548	1.31	-1
0	708	1.41	-1
0	869	1.51	-1
0	1029	1.61	-1
0	1189	1.71	-1
0	1350	1.81	-1
0	1510	1.91	-1
0	1677	2.01	-1
0	1870	2.11	-1
0	2105	2.21	-1
0	2340	2.31	-1
0	2575	2.41	-1
0	2810	2.51	-1
0	3046	2.61	-1
0	3281	2.71	-1
0	3516	2.81	-1
0	3751	2.91	-1
0	3991	3.01	-1
0	4226	3.11	-1
0	4461	3.21	-1
0	4696	3.31	-1
0	4931	3.41	-1
0	5166	3.51	-1
0	5401	3.61	-1
0	5636	3.71	-1
0	5871	3.81	-1
0	6106	3.91	-1
0	6346	4.01	-1
0	6581	4.11	-1
0	6816	4.21	-1
0	7051	4.31	-1
0	7286	4.41	-1
0	7521	4.51	-1
0	7756	4.61	-1
0	7991	4.71	-1
0	8226	4.81	-1
0	8461	4.91	-1
0	8701	5.01	-1
0	8936	5.11	-1
0	9171	5.21	-1
0	9406	5.31	-1
0	9641	5.41	-1
0	9876	5.51	-1
0	10111	5.61	-1
0	10346	5.71	-1
0	10581	5.81	-1
0	10816	5.91	-1
0	11056	6.01	-1
0	11291	6.11	-1
0	11526	6.21	-1
0	11761	6.31	-1
0	11996	6.41	-1
0	12231	6.51	-1
0	12466	6.61	-1
0	12701	6.71	-1
0	12936	6.81	-1
0	13171	6.91	-1
0	13411	7.01	-1
0	13646	7.11	-1
0	13881	7.21	-1
0	14116	7.31	-1
0	14351	7.41	-1
0	14586	7.51	-1
0	14821	7.61	-1
0	15056	7.71	-1
0	15291	7.81	-1
0	15526	7.91	-1
0	15766	8.01	-1
0	16001	8.11	-1
0	16236	8.21	-1
0	16471	8.31	-1
0	16706	8.41	-1
0	16941	8.51	-1
0	17176	8.61	-1
0	17411	8.71	-1
0	17646	8.81	-1
0	17881	8.91	-1
0	18121	9.01	-1
0	18356	9.11	-1
0	18591	9.21	-1
0	18826	9.31	-1
0	19061	9.41	-1
0	19296	9.51	-1
0	19531	9.61	-1
0	19766	9.71	-1
0	20001	9.81	-1
0	20236	9.91	-1
0	20476	10.01	-1
0	20711	10.11	-1
0	20946	10.21	-1
0	21181	10.31	-1
0	21416	10.41	-1
0	21651	10.51	-1
0	21886	10.61	-1
0	22121	10.71	-1
0	22356	10.81	-1
0	22591	10.91	-1
0	22831	11.01	-1
0	23066	11.11	-1
0	23301	11.21	-1
0	23536	11.31	-1
0	23771	11.41	-1
0	24006	11.51	-1
0	24241	11.61	-1
0	24476	11.71	-1
0	24711	11.81	-1
0	24946	11.91	-1
0	25186	12.01	-1
0	25421	12.11	-1
0	25656	12.21	-1
1	228	1.11	0
1	388	1.21	0
1	548	1.31	0
1	708	1.41	0
1	869	1.51	0
1	1029	1.61	0
1	1189	1.71	0
1	1350	1.81	0
1	1510	1.91	0
1	1677	2.01	0
1	1870	2.11	0
1	2105	2.21	0
1	2340	2.31	0
1	2575	2.41	0
1	2810	2.51	0
1	3046	2.61	0
1	3281	2.71	0
1	3516	2.81	0
1	3751	2.91	0
1	3991	3.01	0
1	4226	3.11	0
1	4461	3.21	0
1	4696	3.31	0
1	4931	3.41	0
1	5166	3.51	0
1	5401	3.61	0
1	5636	3.71	0
1	5871	3.81	0
1	6106	3.91	0
1	6346	4.01	0
1	6581	4.11	0
1	6816	4.21	0
1	7051	4.31	0
1	7286	4.41	0
1	7521	4.51	0
1	7756	4.61	0
1	7991	4.71	0
1	8226	4.81	0
1	8461	4.91	0
1	8701	5.01	0
1	8936	5.11	0
1	9171	5.21	0
1	9406	5.31	0
1	9641	5.41	0
1	9876	5.51	0
1	10111	5.61	0
1	10346	5.71	0
1	10581	5.81	0
1	10816	5.91	0
1	11056	6.01	0
1	11291	6.11	0
1	11526	6.21	0
1	11761	6.31	0
1	11996	6.41	0
1	12231	6.51	0
1	12466	6.61	0
1	12701	6.71	0
1	12936	6.81	0
1	13171	6.91	0
1	13411	7.01	0
1	13646	7.11	0
1	13881	7.21	0
1	14116	7.31	0
1	14351	7.41	0
1	14586	7.51	0
1	14821	7.61	0
1	15056	7.71	0
1	15291	7.81	0
1	15526	7.91	0
1	15766	8.01	0
1	16001	8.11	0
1	16236	8.21	0
1	16471	8.31	0
1	16706	8.41	0
1	16941	8.51	0
1	17176	8.61	0
1	17411	8.71	0
1	17646	8.81	0
1	17881	8.91	0
1	18121	9.01	0
1	18356	9.11	0
1	18591	9.21	0
1	18826	9.31	0
1	19061	9.41	0
1	19296	9.51	0
1	19531	9.61	0
1	19766	9.71	0
1	20001	9.81	0
1	20236	9.91	0
1	20476	10.01	0
1	20711	10.11	0
1	20946	10.21	0
1	21181	10.31	0
1	21416	10.41	0
1	21651	10.51	0
1	21886	10.61	0
1	22121	10.71	0
1	22356	10.81	0
1	22591	10.91	0
1	22831	11.01	0
1	23066	11.11	0
1	23301	11.21	0
1	23536	11.31	0
1	23771	11.41	0
1	24006	11.51	0
1	24241	11.61	0
1	24476	11.71	0
1	24711	11.81	0
1	24946	11.91	0
1	25186	12.01	0
1	25421	12.11	0
1	25656	12.21	0
2	228	1.11	0
2	388	1.21	0
2	548	1.31	0
2	708	1.41	0
2	869	1.51	0
2	1029	1.61	0
2	1189	1.71	0
2	1350	1.81	0
2	1510	1.91	0
2	1677	2.01	0
2	1870	2.11	0
2	2105	2.21	0
2	2340	2.31	0
2	2575	2.41	0
2	2810	2.51	0
2	3046	2.61	0
2	3281	2.71	0
2	3516	2.81	0
2	3751	2.91	0
2	3991	3.01	0
2	4226	3.11	0
2	4461	3.21	0
2	4696	3.31	0
2	4931	3.41	0
2	5166	3.51	0
2	5401	3.61	0
2	5636	3.71	0
2	5871	3.81	0
2	6106	3.91	0
2	6346	4.01	0
2	6581	4.11	0
2	6816	4.21	0
2	7051	4.31	0
2	7286	4.41	0
2	7521	4.51	0
2	7756	4.61	0
2	7991	4.71	0
2	8226	4.81	0
2	8461	4.91	0
2	8701	5.01	0
2	8936	5.11	0
2	9171	5.21	0
2	9406	5.31	0
2	9641	5.41	0
2	9876	5.51	0
2	10111	5.61	0
2	10346	5.71	0
2	10581	5.81	0
2	10816	5.91	0
2	11056	6.01	0
2	11291	6.11	0
2	11526	6.21	0
2	11761	6.31	0
2	11996	6.41	0
2	12231	6.51	0
2	12466	6.61	0
2	12701	6.71	0
2	12936	6.81	0
2	13171	6.91	0
2	13411	7.01	0
2	13646	7.11	0
2	13881	7.21	0
2	14116	7.31	0
2	14351	7.41	0
2	14586	7.51	0
2	14821	7.61	0
2	15056	7.71	0
2	15291	7.81	0
2	15526	7.91	0
2	15766	8.01	0
2	16001	8.11	0
2	16236	8.21	0
2	16471	8.31	0
2	16706	8.41	0
2	16941	8.51	0
2	17176	8.61	0
2	17411	8.71	0
2	17646	8.81	0
2	17881	8.91	0
2	18121	9.01	0
2	18356	9.11	0
2	18591	9.21	0
2	18826	9.31	0
2	19061	9.41	0
2	19296	9.51	0
2	19531	9.61	0
2	19766	9.71	0
2	20001	9.81	0
2	20236	9.91	0
2	20476	10.01	0
2	20711	10.11	0
2	20946	10.21	0
2	21181	10.31	0
2	21416	10.41	0
2	21651	10.51	0
2	21886	10.61	0
2	22121	10.71	0
2	22356	10.81	0
2	22591	10.91	0
2	22831	11.01	0
2	23066	11.11	0
2	23301	11.21	0
2	23536	11.31	0
2	23771	11.41	0
2	24006	11.51	0
2	24241	11.61	0
2	24476	11.71	0
2	24711	11.81	0
2	24946	11.91	0
2	25186	12.01	0
2	25421	12.11	0
2	25656	12.21	0
3	228	1.11	-0.000358191
3	388	1.21	-0.000681704
3	548	1.31	-0.00093487
3	708	1.41	-0.00112579
3	869	1.51	-0.00126221
3	1029	1.61	-0.00135149
3	1189	1.71	-0.00140049
3	1350	1.81	-0.00141557
3	1510	1.91	-0.00140255
3	1677	2.01	-0.00136671
3	1870	2.11	-0.0013128
3	2105	2.21	-0.00124502
3	2340	2.31	-0.0011671
3	2575	2.41	-0.00108223
3	2810	2.51	-0.000993208
3	3046	2.61	-0.000902362
3	3281	2.71	-0.000811651
3	3516	2.81	-0.000722679
3	3751	2.91	-0.000636729
3	3991	3.01	-0.0005548
3	4226	3.11	-0.000477639
3	4461	3.21	-0.000405773
3	4696	3.31	-0.00033954
3	4931	3.41	-0.000279116
3	5166	3.51	-0.000224541
3	5401	3.61	-0.000175743
3	5636	3.71	-0.00013256
3	5871	3.81	-9.47571e-05
3	6106	3.91	-6.2046e-05
3	6346	4.01	-3.40986e-05
3	6581	4.11	-1.05605e-05
3	6816	4.21	8.93844e-06
3	7051	4.31	2.4774e-05
3	7286	4.41	3.73203e-05
3	7521	4.51	4.69433e-05
3	7756	4.61	5.39956e-05
3	7991	4.71	5.88124e-05
3	8226	4.81	6.1709e-05
3	8461	4.91	6.29785e-05
3	8701	5.01	6.28903e-05
3	8936	5.11	6.169e-05
3	9171	5.21	5.95988e-05
3	9406	5.31	5.68144e-05
3	9641	5.41	5.35112e-05
3	9876	5.51	4.98416e-05
3	10111	5.61	4.59373e-05
3	10346	5.71	4.19105e-05
3	10581	5.81	3.78555e-05
3	10816	5.91	3.38499e-05
3	11056	6.01	2.99569e-05
3	11291	6.11	2.62259e-05
3	11526	6.21	2.26948e-05
3	11761	6.31	1.93911e-05
3	11996	6.41	1.6333e-05
3	12231	6.51	1.35314e-05
3	12466	6.61	1.09904e-05
3	12701	6.71	8.70882e-06
3	12936	6.81	6.6809e-06
3	13171	6.91	4.89747e-06
3	13411	7.01	3.3466e-06
3	13646	7.11	2.01432e-06
3	13881	7.21	8.85256e-07
3	14116	7.31	-5.68459e-08
3	14351	7.41	-8.28678e-07
3	14586	7.51	-1.44699e-06
3	14821	7.61	-1.92826e-06
3	15056	7.71	-2.28849e-06
3	15291	7.81	-2.54296e-06
3	15526	7.91	-2.7061e-06
3	15766	8.01	-2.79139e-06
3	16001	8.11	-2.8113e-06
3	16236	8.21	-2.77721e-06
3	16471	8.31	-2.69943e-06
3	16706	8.41	-2.58721e-06
3	16941	8.51	-2.44874e-06
3	17176	8.61	-2.29123e-06
3	17411	8.71	-2.12092e-06
3	17646	8.81	-1.94317e-06
3	17881	8.91	-1.7625e-06
3	18121	9.01	-1.58267e-06
3	18356	9.11	-1.40677e-06
3	18591	9.21	-1.23723e-06
3	18826	9.31	-1.07596e-06
3	19061	9.41	-9.24364e-07
3	19296	9.51	-7.83424e-07
3	19531	9.61	-6.53753e-07
3	19766	9.71	-5.35652e-07
3	20001	9.81	-4.2916e-07
3	20236	9.91	-3.34103e-07
3	20476	10.01	-2.5013e-07
3	20711	10.11	-1.76757e-07
3	20946	10.21	-1.13395e-07
3	21181	10.31	-5.93825e-08
3	21416	10.41	-1.40084e-08
3	21651	10.51	2.34657e-08
3	21886	10.61	5.3787e-08
3	22121	10.71	7.76954e-08
3	22356	10.81	9.59155e-08
3	22591	10.91	1.09142e-07
3	22831	11.01	1.18035e-07
3	23066	11.11	1.23212e-07
3	23301	11.21	1.2525e-07
3	23536	11.31	1.24675e-07
3	23771	11.41	1.21968e-07
3	24006	11.51	1.17559e-07
3	24241	11.61	1.11834e-07
3	24476	11.71	1.05132e-07
3	24711	11.81	9.77476e-08
3	24946	11.91	8.99373e-08
3	25186	12.01	8.19171e-08
3	25421	12.11	7.38677e-08
3	25656	12.21	6.59401e-08
4	228	1.11	-0.00218518
4	388	1.21	-0.00213419
4	548	1.31	-0.00205408
4	708	1.41	-0.00195152
4	869	1.51	-0.00183238
4	1029	1.61	-0.00170178
4	1189	1.71	-0.00156412
4	1350	1.81	-0.00142314
4	1510	1.91	-0.00128196
4	1677	2.01	-0.00114315
4	1870	2.11	-0.00100877
4	2105	2.21	-0.000880447
4	2340	2.31	-0.000759381
4	2575	2.41	-0.000646445
4	2810	2.51	-0.000542204
4	3046	2.61	-0.000446965
4	3281	2.71	-0.000360819
4	3516	2.81	-0.000283678
4	3751	2.91	-0.000215307
4	3991	3.01	-0.000155357
4	4226	3.11	-0.000103391
4	4461	3.21	-5.89069e-05
4	4696	3.31	-2.13575e-05
4	4931	3.41	9.82919e-06
4	5166	3.51	3.52368e-05
4	5401	3.61	5.54479e-05
4	5636	3.71	7.10335e-05
4	5871	3.81	8.25451e-05
4	6106	3.91	9.05081e-05
4	6346	4.01	9.54172e-05
4	6581	4.11	9.7733e-05
4	6816	4.21	9.78798e-05
4	7051	4.31	9.62447e-05
4	7286	4.41	9.31771e-05
4	7521	4.51	8.89894e-05
4	7756	4.61	8.39579e-05
4	7991	4.71	7.83245e-05
4	8226	4.81	7.22983e-05
4	8461	4.91	6.6058e-05
4	8701	5.01	5.9754e-05
4	8936	5.11	5.35107e-05
4	9171	5.21	4.74294e-05
4	9406	5.31	4.15898e-05
4	9641	5.41	3.60534e-05
4	9876	5.51	3.0865e-05
4	10111	5.61	2.60551e-05
4	10346	5.71	2.16419e-05
4	10581	5.81	1.76335e-05
4	10816	5.91	1.40289e-05
4	11056	6.01	1.08202e-05
4	11291	6.11	7.99392e-06
4	11526	6.21	5.532e-06
4	11761	6.31	3.41315e-06
4	11996	6.41	1.61374e-06
4	12231	6.51	1.08654e-07
4	12466	6.61	-1.12799e-06
4	12701	6.71	-2.12224e-06
4	12936	6.81	-2.89981e-06
4	13171	6.91	-3.48567e-06
4	13411	7.01	-3.90376e-06
4	13646	7.11	-4.17673e-06
4	13881	7.21	-4.32574e-06
4	14116	7.31	-4.3704e-06
4	14351	7.41	-4.32865e-06
4	14586	7.51	-4.21676e-06
4	14821	7.61	-4.04934e-06
4	15056	7.71	-3.83937e-06
4	15291	7.81	-3.59826e-06
4	15526	7.91	-3.33592e-06
4	15766	8.01	-3.06089e-06
4	16001	8.11	-2.78036e-06
4	16236	8.21	-2.50036e-06
4	16471	8.31	-2.22582e-06
4	16706	8.41	-1.96068e-06
4	16941	8.51	-1.708e-06
4	17176	8.61	-1.47009e-06
4	17411	8.71	-1.24855e-06
4	17646	8.81	-1.04441e-06
4	17881	8.91	-8.58219e-07
4	18121	9.01	-6.90082e-07
4	18356	9.11	-5.39774e-07
4	18591	9.21	-4.06787e-07
4	18826	9.31	-2.90396e-07
4	19061	9.41	-1.89707e-07
4	19296	9.51	-1.03704e-07
4	19531	9.61	-3.12909e-08
4	19766	9.71	2.86736e-08
4	20001	9.81	7.73515e-08
4	20236	9.91	1.15897e-07
4	20476	10.01	1.45439e-07
4	20711	10.11	1.67065e-07
4	20946	10.21	1.81809e-07
4	21181	10.31	1.90644e-07
4	21416	10.41	1.94472e-07
4	21651	10.51	1.94125e-07
4	21886	10.61	1.90358e-07
4	22121	10.71	1.83853e-07
4	22356	10.81	1.75219e-07
4	22591	10.91	1.64994e-07
4	22831	11.01	1.53647e-07
4	23066	11.11	1.41582e-07
4	23301	11.21	1.29146e-07
4	23536	11.31	1.16627e-07
4	23771	11.41	1.04266e-07
4	24006	11.51	9.22547e-08
4	24241	11.61	8.07471e-08
4	24476	11.71	6.98584e-08
4	24711	11.81	5.96732e-08
4	24946	11.91	5.02471e-08
4	25186	12.01	4.16133e-08
4	25421	12.11	3.37845e-08
4	25656	12.21	2.67558e-08
5	228	1.11	27.78
5	388	1.21	27.7799
5	548	1.31	27.7798
5	708	1.41	27.7797
5	869	1.51	27.7796
5	1029	1.61	27.7795
5	1189	1.71	27.7794
5	1350	1.81	27.7792
5	1510	1.91	27.7791
5	1677	2.01	27.7789
5	1870	2.11	27.7788
5	2105	2.21	27.7787
5	2340	2.31	27.7785
5	2575	2.41	27.7784
5	2810	2.51	27.7783
5	3046	2.61	27.7782
5	3281	2.71	27.7782
5	3516	2.81	27.7781
5	3751	2.91	27.778
5	3991	3.01	27.7779
5	4226	3.11	27.7779
5	4461	3.21	27.7779
5	4696	3.31	27.7778
5	4931	3.41	27.7778
5	5166	3.51	27.7778
5	5401	3.61	27.7777
5	5636	3.71	27.7777
5	5871	3.81	27.7777
5	6106	3.91	27.7777
5	6346	4.01	27.7777
5	6581	4.11	27.7777
5	6816	4.21	27.7777
5	7051	4.31	27.7777
5	7286	4.41	27.7777
5	7521	4.51	27.7777
5	7756	4.61	27.7777
5	7991	4.71	27.7777
5	8226	4.81	27.7777
5	8461	4.91	27.7777
5	8701	5.01	27.7777
5	8936	5.11	27.7777
5	9171	5.21	27.7778
5	9406	5.31	27.7778
5	9641	5.41	27.7778
5	9876	5.51	27.7778
5	10111	5.61	27.7778
5	10346	5.71	27.7778
5	10581	5.81	27.7778
5	10816	5.91	27.7778
5	11056	6.01	27.7778
5	11291	6.11	27.7778
5	11526	6.21	27.7778
5	11761	6.31	27.7778
5	11996	6.41	27.7778
5	12231	6.51	27.7778
5	12466	6.61	27.7778
5	12701	6.71	27.7778
5	12936	6.81	27.7778
5	13171	6.91	27.7778
5	13411	7.01	27.7778
5	13646	7.11	27.7778
5	13881	7.21	27.7778
5	14116	7.31	27.7778
5	14351	7.41	27.7778
5	14586	7.51	27.7778
5	14821	7.61	27.7778
5	15056	7.71	27.7778
5	15291	7.81	27.7778
5	15526	7.91	27.7778
5	15766	8.01	27.7778
5	16001	8.11	27.7778
5	16236	8.21	27.7778
5	16471	8.31	27.7778
5	16706	8.41	27.7778
5	16941	8.51	27.7778
5	17176	8.61	27.7778
5	17411	8.71	27.7778
5	17646	8.81	27.7778
5	17881	8.91	27.7778
5	18121	9.01	27.7778
5	18356	9.11	27.7778
5	18591	9.21	27.7778
5	18826	9.31	27.7778
5	19061	9.41	27.7778
5	19296	9.51	27.7778
5	19531	9.61	27.7778
5	19766	9.71	27.7778
5	20001	9.81	27.7778
5	20236	9.91	27.7778
5	20476	10.01	27.7778
5	20711	10.11	27.7778
5	20946	10.21	27.7778
5	21181	10.31	27.7778
5	21416	10.41	27.7778
5	21651	10.51	27.7778
5	21886	10.61	27.7778
5	22121	10.71	27.7778
5	22356	10.81	27.7778
5	22591	10.91	27.7778
5	22831	11.01	27.7778
5	23066	11.11	27.7778
5	23301	11.21	27.7778
5	23536	11.31	27.7778
5	23771	11.41	27.7778
5	24006	11.51	27.7778
5	24241	11.61	27.7778
5	24476	11.71	27.7778
5	24711	11.81	27.7778
5	24946	11.91	27.7778
5	25186	12.01	27.7778
5	25421	12.11	27.7778
5	25656	12.21	27.7778
6	228	1.11	53.9402
6	388	1.21	56.7182
6	548	1.31	59.4962
6	708	1.41	62.2742
6	869	1.51	65.0521
6	1029	1.61	67.8301
6	1189	1.71	70.608
6	1350	1.81	73.386
6	1510	1.91	76.1639
6	1677	2.01	78.9418
6	1870	2.11	81.7197
6	2105	2.21	84.4975
6	2340	2.31	87.2754
6	2575	2.41	90.0532
6	2810	2.51	92.8311
6	3046	2.61	95.6089
6	3281	2.71	98.3867
6	3516	2.81	101.165
6	3751	2.91	103.942
6	3991	3.01	106.72
6	4226	3.11	109.498
6	4461	3.21	112.276
6	4696	3.31	115.053
6	4931	3.41	117.831
6	5166	3.51	120.609
6	5401	3.61	123.387
6	5636	3.71	126.165
6	5871	3.81	128.942
6	6106	3.91	131.72
6	6346	4.01	134.498
6	6581	4.11	137.276
6	6816	4.21	140.053
6	7051	4.31	142.831
6	7286	4.41	145.609
6	7521	4.51	148.387
6	7756	4.61	151.165
6	7991	4.71	153.942
6	8226	4.81	156.72
6	8461	4.91	159.498
6	8701	5.01	162.276
6	8936	5.11	165.053
6	9171	5.21	167.831
6	9406	5.31	170.609
6	9641	5.41	173.387
6	9876	5.51	176.165
6	10111	5.61	178.942
6	10346	5.71	181.72
6	10581	5.81	184.498
6	10816	5.91	187.276
6	11056	6.01	190.053
6	11291	6.11	192.831
6	11526	6.21	195.609
6	11761	6.31	198.387
6	11996	6.41	201.165
6	12231	6.51	203.942
6	12466	6.61	206.72
6	12701	6.71	209.498
6	12936	6.81	212.276
6	13171	6.91	215.053
6	13411	7.01	217.831
6	13646	7.11	220.609
6	13881	7.21	223.387
6	14116	7.31	226.165
6	14351	7.41	228.942
6	14586	7.51	231.72
6	14821	7.61	234.498
6	15056	7.71	237.276
6	15291	7.81	240.053
6	15526	7.91	242.831
6	15766	8.01	245.609
6	16001	8.11	248.387
6	16236	8.21	251.165
6	16471	8.31	253.942
6	16706	8.41	256.72
6	16941	8.51	259.498
6	17176	8.61	262.276
6	17411	8.71	265.053
6	17646	8.81	267.831
6	17881	8.91	270.609
6	18121	9.01	273.387
6	18356	9.11	276.165
6	18591	9.21	278.942
6	18826	9.31	281.72
6	19061	9.41	284.498
6	19296	9.51	287.276
6	19531	9.61	290.053
6	19766	9.71	292.831
6	20001	9.81	295.609
6	20236	9.91	298.387
6	20476	10.01	301.165
6	20711	10.11	303.942
6	20946	10.21	306.72
6	21181	10.31	309.498
6	21416	10.41	312.276
6	21651	10.51	315.054
6	21886	10.61	317.831
6	22121	10.71	320.609
6	22356	10.81	323.387
6	22591	10.91	326.165
6	22831	11.01	328.942
6	23066	11.11	331.72
6	23301	11.21	334.498
6	23536	11.31	337.276
6	23771	11.41	340.054
6	24006	11.51	342.831
6	24241	11.61	345.609
6	24476	11.71	348.387
6	24711	11.81	351.165
6	24946	11.91	353.942
6	25186	12.01	356.72
6	25421	12.11	359.498
6	25656	12.21	362.276
7	228	1.11	75.2
7	388	1.21	75.2
7	548	1.31	75.2
7	708	1.41	75.2
7	869	1.51	75.2
7	1029	1.61	75.2
7	1189	1.71	75.2
7	1350	1.81	75.2
7	1510	1.91	75.2
7	1677	2.01	75.2
7	1870	2.11	75.2
7	2105	2.21	75.2
7	2340	2.31	75.2
7	2575	2.41	75.2
7	2810	2.51	75.2
7	3046	2.61	75.2
7	3281	2.71	75.2
7	3516	2.81	75.2
7	3751	2.91	75.2
7	3991	3.01	75.2
7	4226	3.11	75.2
7	4461	3.21	75.2
7	4696	3.31	75.2
7	4931	3.41	75.2
7	5166	3.51	75.2
7	5401	3.61	75.2
7	5636	3.71	75.2
7	5871	3.81	75.2
7	6106	3.91	75.2
7	6346	4.01	75.2
7	6581	4.11	75.2
7	6816	4.21	75.2
7	7051	4.31	75.2
7	7286	4.41	75.2
7	7521	4.51	75.2
7	7756	4.61	75.2
7	7991	4.71	75.2
7	8226	4.81	75.2
7	8461	4.91	75.2
7	8701	5.01	75.2
7	8936	5.11	75.2
7	9171	5.21	75.2
7	9406	5.31	75.2
7	9641	5.41	75.2
7	9876	5.51	75.2
7	10111	5.61	75.2
7	10346	5.71	75.2
7	10581	5.81	75.2
7	10816	5.91	75.2
7	11056	6.01	75.2
7	11291	6.11	75.2
7	11526	6.21	75.2
7	11761	6.31	75.2
7	11996	6.41	75.2
7	12231	6.51	75.2
7	12466	6.61	75.2
7	12701	6.71	75.2
7	12936	6.81	75.2
7	13171	6.91	75.2
7	13411	7.01	75.2
7	13646	7.11	75.2
7	13881	7.21	75.2
7	14116	7.31	75.2
7	14351	7.41	75.2
7	14586	7.51	75.2
7	14821	7.61	75.2
7	15056	7.71	75.2
7	15291	7.81	75.2
7	15526	7.91	75.2
7	15766	8.01	75.2
7	16001	8.11	75.2
7	16236	8.21	75.2
7	16471	8.31	75.2
7	16706	8.41	75.2
7	16941	8.51	75.2
7	17176	8.61	75.2
7	17411	8.71	75.2
7	17646	8.81	75.2
7	17881	8.91	75.2
7	18121	9.01	75.2
7	18356	9.11	75.2
7	18591	9.21	75.2
7	18826	9.31	75.2
7	19061	9.41	75.2
7	19296	9.51	75.2
7	19531	9.61	75.2
7	19766	9.71	75.2
7	20001	9.81	75.2
7	20236	9.91	75.2
7	20476	10.01	75.2
7	20711	10.11	75.2
7	20946	10.21	75.2
7	21181	10.31	75.2
7	21416	10.41	75.2
7	21651	10.51	75.2
7	21886	10.61	75.2
7	22121	10.71	75.2
7	22356	10.81	75.2
7	22591	10.91	75.2
7	22831	11.01	75.2
7	23066	11.11	75.2
7	23301	11.21	75.2
7	23536	11.31	75.2
7	23771	11.41	75.2
7	24006	11.51	75.2
7	24241	11.61	75.2
7	24476	11.71	75.2
7	24711	11.81	75.2
7	24946	11.91	75.2
7	25186	12.01	75.2
7	25421	12.11	75.2
7	25656	12.21	75.2
8	229	1.11	10.33
8	389	1.21	10.33
8	549	1.31	10.3297
8	709	1.41	10.3289
8	870	1.51	10.3272
8	1030	1.61	10.3245
8	1190	1.71	10.3205
8	1351	1.81	10.3151
8	1511	1.91	10.3083
8	1678	2.01	10.2999
8	1871	2.11	10.29
8	2106	2.21	10.2784
8	2341	2.31	10.2653
8	2576	2.41	10.2505
8	2811	2.51	10.2342
8	3047	2.61	10.2163
8	3282	2.71	10.1968
8	3517	2.81	10.1759
8	3752	2.91	10.1535
8	3992	3.01	10.1297
8	4227	3.11	10.1046
8	4462	3.21	10.0782
8	4697	3.31	10.0506
8	4932	3.41	10.0218
8	5167	3.51	9.99188
8	5402	3.61	9.96089
8	5637	3.71	9.9289
8	5872	3.81	9.89596
8	6107	3.91	9.86212
8	6347	4.01	9.82743
8	6582	4.11	9.79196
8	6817	4.21	9.75575
8	7052	4.31	9.71885
8	7287	4.41	9.68132
8	7522	4.51	9.64319
8	7757	4.61	9.60451
8	7992	4.71	9.56533
8	8227	4.81	9.52569
8	8462	4.91	9.48563
8	8702	5.01	9.44519
8	8937	5.11	9.40441
8	9172	5.21	9.36333
8	9407	5.31	9.32197
8	9642	5.41	9.28038
8	9877	5.51	9.23859
8	10112	5.61	9.19662
8	10347	5.71	9.15451
8	10582	5.81	9.11229
8	10817	5.91	9.06998
8	11057	6.01	9.02761
8	11292	6.11	8.9852
8	11527	6.21	8.94278
8	11762	6.31	8.90036
8	11997	6.41	8.85798
8	12232	6.51	8.81565
8	12467	6.61	8.77339
8	12702	6.71	8.73122
8	12937	6.81	8.68916
8	13172	6.91	8.64722
8	13412	7.01	8.60542
8	13647	7.11	8.56377
8	13882	7.21	8.52229
8	14117	7.31	8.481
8	14352	7.41	8.43989
8	14587	7.51	8.399
8	14822	7.61	8.35832
8	15057	7.71	8.31787
8	15292	7.81	8.27766
8	15527	7.91	8.23769
8	15767	8.01	8.19799
8	16002	8.11	8.15854
8	16237	8.21	8.11937
8	16472	8.31	8.08048
8	16707	8.41	8.04187
8	16942	8.51	8.00356
8	17177	8.61	7.96554
8	17412	8.71	7.92783
8	17647	8.81	7.89043
8	17882	8.91	7.85333
8	18122	9.01	7.81656
8	18357	9.11	7.78011
8	18592	9.21	7.74398
8	18827	9.31	7.70817
8	19062	9.41	7.6727
8	19297	9.51	7.63756
8	19532	9.61	7.60275
8	19767	9.71	7.56828
8	20002	9.81	7.53415
8	20237	9.91	7.50036
8	20477	10.01	7.46691
8	20712	10.11	7.4338
8	20947	10.21	7.40103
8	21182	10.31	7.3686
8	21417	10.41	7.33652
8	21652	10.51	7.30477
8	21887	10.61	7.27337
8	22122	10.71	7.24232
8	22357	10.81	7.2116
8	22592	10.91	7.18123
8	22832	11.01	7.1512
8	23067	11.11	7.1215
8	23302	11.21	7.09215
8	23537	11.31	7.06313
8	23772	11.41	7.03445
8	24007	11.51	7.0061
8	24242	11.61	6.97809
8	24477	11.71	6.95041
8	24712	11.81	6.92305
8	24947	11.91	6.89603
8	25187	12.01	6.86933
8	25422	12.11	6.84296
8	25657	12.21	6.81691
9	229	1.11	-1.84044e-05
9	389	1.21	-0.00067721
9	549	1.31	-0.00468696
9	709	1.41	-0.0117693
9	870	1.51	-0.0213206
9	1030	1.61	-0.0328273
9	1190	1.71	-0.0458534
9	1351	1.81	-0.0600293
9	1511	1.91	-0.0750427
9	1678	2.01	-0.0906303
9	1871	2.11	-0.106571
9	2106	2.21	-0.12268
9	2341	2.31	-0.138803
9	2576	2.41	-0.154813
9	2811	2.51	-0.170603
9	3047	2.61	-0.18609
9	3282	2.71	-0.201202
9	3517	2.81	-0.215886
9	3752	2.91	-0.230097
9	3992	3.01	-0.243802
9	4227	3.11	-0.256977
9	4462	3.21	-0.269604
9	4697	3.31	-0.281673
9	4932	3.41	-0.293177
9	5167	3.51	-0.304115
9	5402	3.61	-0.314488
9	5637	3.71	-0.324301
9	5872	3.81	-0.333561
9	6107	3.91	-0.342278
9	6347	4.01	-0.350461
9	6582	4.11	-0.358124
9	6817	4.21	-0.365279
9	7052	4.31	-0.37194
9	7287	4.41	-0.378122
9	7522	4.51	-0.383839
9	7757	4.61	-0.389107
9	7992	4.71	-0.39394
9	8227	4.81	-0.398353
9	8462	4.91	-0.402363
9	8702	5.01	-0.405983
9	8937	5.11	-0.409229
9	9172	5.21	-0.412115
9	9407	5.31	-0.414657
9	9642	5.41	-0.416868
9	9877	5.51	-0.418761
9	10112	5.61	-0.420351
9	10347	5.71	-0.42165
9	10582	5.81	-0.422671
9	10817	5.91	-0.423426
9	11057	6.01	-0.423927
9	11292	6.11	-0.424186
9	11527	6.21	-0.424213
9	11762	6.31	-0.42402
9	11997	6.41	-0.423617
9	12232	6.51	-0.423015
9	12467	6.61	-0.422223
9	12702	6.71	-0.42125
9	12937	6.81	-0.420106
9	13172	6.91	-0.418799
9	13412	7.01	-0.417338
9	13647	7.11	-0.415731
9	13882	7.21	-0.413987
9	14117	7.31	-0.412111
9	14352	7.41	-0.410112
9	14587	7.51	-0.407998
9	14822	7.61	-0.405773
9	15057	7.71	-0.403445
9	15292	7.81	-0.401021
9	15527	7.91	-0.398505
9	15767	8.01	-0.395904
9	16002	8.11	-0.393224
9	16237	8.21	-0.390469
9	16472	8.31	-0.387644
9	16707	8.41	-0.384755
9	16942	8.51	-0.381806
9	17177	8.61	-0.378801
9	17412	8.71	-0.375745
9	17647	8.81	-0.372642
9	17882	8.91	-0.369495
9	18122	9.01	-0.366309
9	18357	9.11	-0.363087
9	18592	9.21	-0.359833
9	18827	9.31	-0.356549
9	19062	9.41	-0.353239
9	19297	9.51	-0.349906
9	19532	9.61	-0.346552
9	19767	9.71	-0.343182
9	20002	9.81	-0.339796
9	20237	9.91	-0.336397
9	20477	10.01	-0.332989
9	20712	10.11	-0.329573
9	20947	10.21	-0.326151
9	21182	10.31	-0.322726
9	21417	10.41	-0.319299
9	21652	10.51	-0.315872
9	21887	10.61	-0.312447
9	22122	10.71	-0.309026
9	22357	10.81	-0.305611
9	22592	10.91	-0.302202
9	22832	11.01	-0.298801
9	23067	11.11	-0.29541
9	23302	11.21	-0.29203
9	23537	11.31	-0.288663
9	23772	11.41	-0.285308
9	24007	11.51	-0.281968
9	24242	11.61	-0.278643
9	24477	11.71	-0.275335
9	24712	11.81	-0.272044
9	24947	11.91	-0.268772
9	25187	12.01	-0.265519
9	25422	12.11	-0.262285
9	25657	12.21	-0.259072
10	229	1.11	1
10	389	1.21	1
10	549	1.31	1
10	709	1.41	1
10	870	1.51	1
10	1030	1.61	1
10	1190	1.71	1
10	1351	1.81	1
10	1511	1.91	1
10	1678	2.01	1
10	1871	2.11	1
10	2106	2.21	1
10	2341	2.31	1
10	2576	2.41	1
10	2811	2.51	1
10	3047	2.61	1
10	3282	2.71	1
10	3517	2.81	1
10	3752	2.91	1
10	3992	3.01	1
10	4227	3.11	1
10	4462	3.21	1
10	4697	3.31	1
10	4932	3.41	1
10	5167	3.51	1
10	5402	3.61	1
10	5637	3.71	1
10	5872	3.81	1
10	6107	3.91	1
10	6347	4.01	1
10	6582	4.11	1
10	6817	4.21	1
10	7052	4.31	1
10	7287	4.41	1
10	7522	4.51	1
10	7757	4.61	1
10	7992	4.71	1
10	8227	4.81	1
10	8462	4.91	1
10	8702	5.01	1
10	8937	5.11	1
10	9172	5.21	1
10	9407	5.31	1
10	9642	5.41	1
10	9877	5.51	1
10	10112	5.61	1
10	10347	5.71	1
10	10582	5.81	1
10	10817	5.91	1
10	11057	6.01	1
10	11292	6.11	1
10	11527	6.21	1
10	11762	6.31	1
10	11997	6.41	1
10	12232	6.51	1
10	12467	6.61	1
10	12702	6.71	1
10	12937	6.81	1
10	13172	6.91	1
10	13412	7.01	1
10	13647	7.11	1
10	13882	7.21	1
10	14117	7.31	1
10	14352	7.41	1
10	14587	7.51	1
10	14822	7.61	1
10	15057	7.71	1
10	15292	7.81	1
10	15527	7.91	1
10	15767	8.01	1
10	16002	8.11	1
10	16237	8.21	1
10	16472	8.31	1
10	16707	8.41	1
10	16942	8.51	1
10	17177	8.61	1
10	17412	8.71	1
10	17647	8.81	1
10	17882	8.91	1
10	18122	9.01	1
10	18357	9.11	1
10	18592	9.21	1
10	18827	9.31	1
10	19062	9.41	1
10	19297	9.51	1
10	19532	9.61	1
10	19767	9.71	1
10	20002	9.81	1
10	20237	9.91	1
10	20477	10.01	1
10	20712	10.11	1
10	20947	10.21	1
10	21182	10.31	1
10	21417	10.41	1
10	21652	10.51	1
10	21887	10.61	1
10	22122	10.71	1
10	22357	10.81	1
10	22592	10.91	1
10	22832	11.01	1
10	23067	11.11	1
10	23302	11.21	1
10	23537	11.31	1
10	23772	11.41	1
10	24007	11.51	1
10	24242	11.61	1
10	24477	11.71	1
10	24712	11.81	1
10	24947	11.91	1
10	25187	12.01	1
10	25422	12.11	1
10	25657	12.21	1
11	229	1.11	0
11	389	1.21	0.0198873
11	549	1.31	0.054072
11	709	1.41	0.0817296
11	870	1.51	0.103833
11	1030	1.61	0.121218
11	1190	1.71	0.134598
11	1351	1.81	0.144588
11	1511	1.91	0.151716
11	1678	2.01	0.156434
11	1871	2.11	0.159134
11	2106	2.21	0.160142
11	2341	2.31	0.159744
11	2576	2.41	0.158185
11	2811	2.51	0.155672
11	3047	2.61	0.152382
11	3282	2.71	0.148465
11	3517	2.81	0.14405
11	3752	2.91	0.139245
11	3992	3.01	0.134147
11	4227	3.11	0.128833
11	4462	3.21	0.123371
11	4697	3.31	0.117815
11	4932	3.41	0.112212
11	5167	3.51	0.106605
11	5402	3.61	0.101026
11	5637	3.71	0.0954974
11	5872	3.81	0.0900432
11	6107	3.91	0.0846848
11	6347	4.01	0.0794366
11	6582	4.11	0.0743101
11	6817	4.21	0.0693141
11	7052	4.31	0.0644556
11	7287	4.41	0.0597397
11	7522	4.51	0.05517
11	7757	4.61	0.0507486
11	7992	4.71	0.0464767
11	8227	4.81	0.0423546
11	8462	4.91	0.0383817
11	8702	5.01	0.0345568
11	8937	5.11	0.0308782
11	9172	5.21	0.0273475
11	9407	5.31	0.0239611
11	9642	5.41	0.0207121
11	9877	5.51	0.0175976
11	10112	5.61	0.0146147
11	10347	5.71	0.0117599
11	10582	5.81	0.00902991
11	10817	5.91	0.00642128
11	11057	6.01	0.00393044
11	11292	6.11	0.00155385
11	11527	6.21	-0.000712081
11	11762	6.31	-0.0028709
11	11997	6.41	-0.00492615
11	12232	6.51	-0.00688133
11	12467	6.61	-0.00873988
11	12702	6.71	-0.0105052
11	12937	6.81	-0.0121806
11	13172	6.91	-0.0137694
11	13412	7.01	-0.0152747
11	13647	7.11	-0.0166996
11	13882	7.21	-0.0180472
11	14117	7.31	-0.0193204
11	14352	7.41	-0.0205221
11	14587	7.51	-0.021655
11	14822	7.61	-0.0227217
11	15057	7.71	-0.0237251
11	15292	7.81	-0.0246674
11	15527	7.91	-0.0255512
11	15767	8.01	-0.0263789
11	16002	8.11	-0.0271526
11	16237	8.21	-0.0278747
11	16472	8.31	-0.0285471
11	16707	8.41	-0.0291721
11	16942	8.51	-0.0297515
11	17177	8.61	-0.0302873
11	17412	8.71	-0.0307812
11	17647	8.81	-0.0312351
11	17882	8.91	-0.0316507
11	18122	9.01	-0.0320296
11	18357	9.11	-0.0323735
11	18592	9.21	-0.0326837
11	18827	9.31	-0.0329618
11	19062	9.41	-0.0332093
11	19297	9.51	-0.0334274
11	19532	9.61	-0.0336175
11	19767	9.71	-0.0337808
11	20002	9.81	-0.0339187
11	20237	9.91	-0.0340321
11	20477	10.01	-0.0341223
11	20712	10.11	-0.0341903
11	20947	10.21	-0.0342372
11	21182	10.31	-0.034264
11	21417	10.41	-0.0342717
11	21652	10.51	-0.0342611
11	21887	10.61	-0.0342331
11	22122	10.71	-0.0341887
11	22357	10.81	-0.0341286
11	22592	10.91	-0.0340537
11	22832	11.01	-0.0339647
11	23067	11.11	-0.0338622
11	23302	11.21	-0.0337472
11	23537	11.31	-0.0336201
11	23772	11.41	-0.0334816
11	24007	11.51	-0.0333325
11	24242	11.61	-0.0331732
11	24477	11.71	-0.0330044
11	24712	11.81	-0.0328266
11	24947	11.91	-0.0326403
11	25187	12.01	-0.0324461
11	25422	12.11	-0.0322444
11	25657	12.21	-0.0320357
12	229	1.11	0
12	389	1.21	0.210863
12	549	1.31	0.209441
12	709	1.41	0.206777
12	870	1.51	0.203098
12	1030	1.61	0.198595
12	1190	1.71	0.193393
12	1351	1.81	0.187709
12	1511	1.91	0.181583
12	1678	2.01	0.175195
12	1871	2.11	0.16859
12	2106	2.21	0.161799
12	2341	2.31	0.154963
12	2576	2.41	0.148092
12	2811	2.51	0.14123
12	3047	2.61	0.134411
12	3282	2.71	0.127665
12	3517	2.81	0.121017
12	3752	2.91	0.114485
12	3992	3.01	0.108127
12	4227	3.11	0.101875
12	4462	3.21	0.095818
12	4697	3.31	0.089885
12	4932	3.41	0.0841612
12	5167	3.51	0.0786105
12	5402	3.61	0.0732353
12	5637	3.71	0.067997
12	5872	3.81	0.0629758
12	6107	3.91	0.0581311
12	6347	4.01	0.0534615
12	6582	4.11	0.048965
12	6817	4.21	0.0446391
12	7052	4.31	0.0404807
12	7287	4.41	0.0364867
12	7522	4.51	0.0326535
12	7757	4.61	0.0289773
12	7992	4.71	0.0254542
12	8227	4.81	0.0220802
12	8462	4.91	0.0188512
12	8702	5.01	0.0157629
12	8937	5.11	0.0128111
12	9172	5.21	0.0100316
12	9407	5.31	0.00733992
12	9642	5.41	0.00477194
12	9877	5.51	0.00232353
12	10112	5.61	-9.33554e-06
12	10347	5.71	-0.00223065
12	10582	5.81	-0.00434432
12	10817	5.91	-0.00635418
12	11057	6.01	-0.00826399
12	11292	6.11	-0.0100774
12	11527	6.21	-0.011798
12	11762	6.31	-0.0134292
12	11997	6.41	-0.0149745
12	12232	6.51	-0.0164371
12	12467	6.61	-0.0178202
12	12702	6.71	-0.0191269
12	12937	6.81	-0.0203602
12	13172	6.91	-0.0215229
12	13412	7.01	-0.0226179
12	13647	7.11	-0.0236479
12	13882	7.21	-0.0246155
12	14117	7.31	-0.0255231
12	14352	7.41	-0.0263734
12	14587	7.51	-0.0271685
12	14822	7.61	-0.0279107
12	15057	7.71	-0.0286024
12	15292	7.81	-0.0292454
12	15527	7.91	-0.029842
12	15767	8.01	-0.0303939
12	16002	8.11	-0.0309032
12	16237	8.21	-0.0313716
12	16472	8.31	-0.0318009
12	16707	8.41	-0.0321928
12	16942	8.51	-0.0325488
12	17177	8.61	-0.0328705
12	17412	8.71	-0.0331595
12	17647	8.81	-0.0334171
12	17882	8.91	-0.0336448
12	18122	9.01	-0.0338439
12	18357	9.11	-0.0340157
12	18592	9.21	-0.0341615
12	18827	9.31	-0.0342823
12	19062	9.41	-0.0343794
12	19297	9.51	-0.0344539
12	19532	9.61	-0.0345068
12	19767	9.71	-0.0345391
12	20002	9.81	-0.0345519
12	20237	9.91	-0.0345461
12	20477	10.01	-0.0345225
12	20712	10.11	-0.0344821
12	20947	10.21	-0.0344257
12	21182	10.31	-0.0343541
12	21417	10.41	-0.0342681
12	21652	10.51	-0.0341684
12	21887	10.61	-0.0340557
12	22122	10.71	-0.0339307
12	22357	10.81	-0.0337942
12	22592	10.91	-0.0336467
12	22832	11.01	-0.0334888
12	23067	11.11	-0.0333211
12	23302	11.21	-0.0331442
12	23537	11.31	-0.0329586
12	23772	11.41	-0.0327649
12	24007	11.51	-0.0325635
12	24242	11.61	-0.0323549
12	24477	11.71	-0.0321396
12	24712	11.81	-0.0319181
12	24947	11.91	-0.0316906
12	25187	12.01	-0.0314577
12	25422	12.11	-0.0312197
12	25657	12.21	-0.030977
13	229	1.11	27.78
13	389	1.21	27.7806
13	549	1.31	27.7845
13	709	1.41	27.7915
13	870	1.51	27.8009
13	1030	1.61	27.8123
13	1190	1.71	27.8252
13	1351	1.81	27.8392
13	1511	1.91	27.8541
13	1678	2.01	27.8696
13	1871	2.11	27.8854
13	2106	2.21	27.9013
13	2341	2.31	27.9174
13	2576	2.41	27.9332
13	2811	2.51	27.9489
13	3047	2.61	27.9643
13	3282	2.71	27.9794
13	3517	2.81	27.994
13	3752	2.91	28.0081
13	3992	3.01	28.0218
13	4227	3.11	28.0349
13	4462	3.21	28.0475
13	4697	3.31	28.0595
13	4932	3.41	28.071
13	5167	3.51	28.0819
13	5402	3.61	28.0922
13	5637	3.71	28.102
13	5872	3.81	28.1113
13	6107	3.91	28.12
13	6347	4.01	28.1282
13	6582	4.11	28.1358
13	6817	4.21	28.143
13	7052	4.31	28.1496
13	7287	4.41	28.1558
13	7522	4.51	28.1616
13	7757	4.61	28.1668
13	7992	4.71	28.1717
13	8227	4.81	28.1761
13	8462	4.91	28.1801
13	8702	5.01	28.1837
13	8937	5.11	28.187
13	9172	5.21	28.1899
13	9407	5.31	28.1924
13	9642	5.41	28.1946
13	9877	5.51	28.1965
13	10112	5.61	28.1981
13	10347	5.71	28.1994
13	10582	5.81	28.2005
13	10817	5.91	28.2012
13	11057	6.01	28.2017
13	11292	6.11	28.202
13	11527	6.21	28.202
13	11762	6.31	28.2018
13	11997	6.41	28.2014
13	12232	6.51	28.2008
13	12467	6.61	28.2
13	12702	6.71	28.1991
13	12937	6.81	28.1979
13	13172	6.91	28.1966
13	13412	7.01	28.1951
13	13647	7.11	28.1935
13	13882	7.21	28.1918
13	14117	7.31	28.1899
13	14352	7.41	28.1879
13	14587	7.51	28.1858
13	14822	7.61	28.1836
13	15057	7.71	28.1812
13	15292	7.81	28.1788
13	15527	7.91	28.1763
13	15767	8.01	28.1737
13	16002	8.11	28.171
13	16237	8.21	28.1683
13	16472	8.31	28.1654
13	16707	8.41	28.1626
13	16942	8.51	28.1596
13	17177	8.61	28.1566
13	17412	8.71	28.1535
13	17647	8.81	28.1504
13	17882	8.91	28.1473
13	18122	9.01	28.1441
13	18357	9.11	28.1409
13	18592	9.21	28.1376
13	18827	9.31	28.1343
13	19062	9.41	28.131
13	19297	9.51	28.1277
13	19532	9.61	28.1244
13	19767	9.71	28.121
13	20002	9.81	28.1176
13	20237	9.91	28.1142
13	20477	10.01	28.1108
13	20712	10.11	28.1074
13	20947	10.21	28.104
13	21182	10.31	28.1005
13	21417	10.41	28.0971
13	21652	10.51	28.0937
13	21887	10.61	28.0902
13	22122	10.71	28.0868
13	22357	10.81	28.0834
13	22592	10.91	28.08
13	22832	11.01	28.0766
13	23067	11.11	28.0732
13	23302	11.21	28.0698
13	23537	11.31	28.0665
13	23772	11.41	28.0631
13	24007	11.51	28.0598
13	24242	11.61	28.0564
13	24477	11.71	28.0531
13	24712	11.81	28.0498
13	24947	11.91	28.0466
13	25187	12.01	28.0433
13	25422	12.11	28.0401
13	25657	12.21	28.0369
14	229	1.11	39.6102
14	389	1.21	42.3882
14	549	1.31	45.1665
14	709	1.41	47.9453
14	870	1.51	50.7249
14	1030	1.61	53.5056
14	1190	1.71	56.2876
14	1351	1.81	59.0708
14	1511	1.91	61.8556
14	1678	2.01	64.6418
14	1871	2.11	67.4297
14	2106	2.21	70.2191
14	2341	2.31	73.0101
14	2576	2.41	75.8027
14	2811	2.51	78.5969
14	3047	2.61	81.3926
14	3282	2.71	84.1899
14	3517	2.81	86.9886
14	3752	2.91	89.7888
14	3992	3.01	92.5904
14	4227	3.11	95.3933
14	4462	3.21	98.1975
14	4697	3.31	101.003
14	4932	3.41	103.809
14	5167	3.51	106.617
14	5402	3.61	109.426
14	5637	3.71	112.236
14	5872	3.81	115.046
14	6107	3.91	117.858
14	6347	4.01	120.67
14	6582	4.11	123.484
14	6817	4.21	126.298
14	7052	4.31	129.112
14	7287	4.41	131.928
14	7522	4.51	134.744
14	7757	4.61	137.56
14	7992	4.71	140.377
14	8227	4.81	143.194
14	8462	4.91	146.012
14	8702	5.01	148.83
14	8937	5.11	151.649
14	9172	5.21	154.468
14	9407	5.31	157.287
14	9642	5.41	160.106
14	9877	5.51	162.926
14	10112	5.61	165.746
14	10347	5.71	168.566
14	10582	5.81	171.386
14	10817	5.91	174.206
14	11057	6.01	177.026
14	11292	6.11	179.846
14	11527	6.21	182.666
14	11762	6.31	185.486
14	11997	6.41	188.307
14	12232	6.51	191.127
14	12467	6.61	193.947
14	12702	6.71	196.767
14	12937	6.81	199.586
14	13172	6.91	202.406
14	13412	7.01	205.226
14	13647	7.11	208.045
14	13882	7.21	210.864
14	14117	7.31	213.684
14	14352	7.41	216.502
14	14587	7.51	219.321
14	14822	7.61	222.14
14	15057	7.71	224.958
14	15292	7.81	227.776
14	15527	7.91	230.594
14	15767	8.01	233.411
14	16002	8.11	236.228
14	16237	8.21	239.045
14	16472	8.31	241.862
14	16707	8.41	244.678
14	16942	8.51	247.494
14	17177	8.61	250.31
14	17412	8.71	253.126
14	17647	8.81	255.941
14	17882	8.91	258.756
14	18122	9.01	261.57
14	18357	9.11	264.384
14	18592	9.21	267.198
14	18827	9.31	270.012
14	19062	9.41	272.825
14	19297	9.51	275.638
14	19532	9.61	278.451
14	19767	9.71	281.263
14	20002	9.81	284.075
14	20237	9.91	286.886
14	20477	10.01	289.698
14	20712	10.11	292.509
14	20947	10.21	295.319
14	21182	10.31	298.129
14	21417	10.41	300.939
14	21652	10.51	303.749
14	21887	10.61	306.558
14	22122	10.71	309.367
14	22357	10.81	312.175
14	22592	10.91	314.983
14	22832	11.01	317.791
14	23067	11.11	320.599
14	23302	11.21	323.406
14	23537	11.31	326.213
14	23772	11.41	329.019
14	24007	11.51	331.825
14	24242	11.61	334.631
14	24477	11.71	337.436
14	24712	11.81	340.242
14	24947	11.91	343.046
14	25187	12.01	345.851
14	25422	12.11	348.655
14	25657	12.21	351.459
15	229	1.11	75.2
15	389	1.21	75.2
15	549	1.31	75.2
15	709	1.41	75.2
15	870	1.51	75.2
15	1030	1.61	75.2
15	1190	1.71	75.2
15	1351	1.81	75.2
15	1511	1.91	75.2
15	1678	2.01	75.2
15	1871	2.11	75.2
15	2106	2.21	75.2
15	2341	2.31	75.2
15	2576	2.41	75.2
15	2811	2.51	75.2
15	3047	2.61	75.2
15	3282	2.71	75.2
15	3517	2.81	75.2
15	3752	2.91	75.2
15	3992	3.01	75.2
15	4227	3.11	75.2
15	4462	3.21	75.2
15	4697	3.31	75.2
15	4932	3.41	75.2
15	5167	3.51	75.2
15	5402	3.61	75.2
15	5637	3.71	75.2
15	5872	3.81	75.2
15	6107	3.91	75.2
15	6347	4.01	75.2
15	6582	4.11	75.2
15	6817	4.21	75.2
15	7052	4.31	75.2
15	7287	4.41	75.2
15	7522	4.51	75.2
15	7757	4.61	75.2
15	7992	4.71	75.2
15	8227	4.81	75.2
15	8462	4.91	75.2
15	8702	5.01	75.2
15	8937	5.11	75.2
15	9172	5.21	75.2
15	9407	5.31	75.2
15	9642	5.41	75.2
15	9877	5.51	75.2
15	10112	5.61	75.2
15	10347	5.71	75.2
15	10582	5.81	75.2
15	10817	5.91	75.2
15	11057	6.01	75.2
15	11292	6.11	75.2
15	11527	6.21	75.2
15	11762	6.31	75.2
15	11997	6.41	75.2
15	12232	6.51	75.2
15	12467	6.61	75.2
15	12702	6.71	75.2
15	12937	6.81	75.2
15	13172	6.91	75.2
15	13412	7.01	75.2
15	13647	7.11	75.2
15	13882	7.21	75.2
15	14117	7.31	75.2
15	14352	7.41	75.2
15	14587	7.51	75.2
15	14822	7.61	75.2
15	15057	7.71	75.2
15	15292	7.81	75.2
15	15527	7.91	75.2
15	15767	8.01	75.2
15	16002	8.11	75.2
15	16237	8.21	75.2
15	16472	8.31	75.2
15	16707	8.41	75.2
15	16942	8.51	75.2
15	17177	8.61	75.2
15	17412	8.71	75.2
15	17647	8.81	75.2
15	17882	8.91	75.2
15	18122	9.01	75.2
15	18357	9.11	75.2
15	18592	9.21	75.2
15	18827	9.31	75.2
15	19062	9.41	75.2
15	19297	9.51	75.2
15	19532	9.61	75.2
15	19767	9.71	75.2
15	20002	9.81	75.2
15	20237	9.91	75.2
15	20477	10.01	75.2
15	20712	10.11	75.2
15	20947	10.21	75.2
15	21182	10.31	75.2
15	21417	10.41	75.2
15	21652	10.51	75.2
15	21887	10.61	75.2
15	22122	10.71	75.2
15	22357	10.81	75.2
15	22592	10.91	75.2
15	22832	11.01	75.2
15	23067	11.11	75.2
15	23302	11.21	75.2
15	23537	11.31	75.2
15	23772	11.41	75.2
15	24007	11.51	75.2
15	24242	11.61	75.2
15	24477	11.71	75.2
15	24712	11.81	75.2
15	24947	11.91	75.2
15	25187	12.01	75.2
15	25422	12.11	75.2
15	25657	12.21	75.2
16	230	1.11	10.34
16	390	1.21	10.34
16	550	1.31	10.34
16	710	1.41	10.3398
16	871	1.51	10.3392
16	1031	1.61	10.3382
16	1191	1.71	10.3366
16	1352	1.81	10.3344
16	1512	1.91	10.3314
16	1679	2.01	10.3276
16	1872	2.11	10.323
16	2107	2.21	10.3176
16	2342	2.31	10.3112
16	2577	2.41	10.304
16	2812	2.51	10.2958
16	3048	2.61	10.2867
16	3283	2.71	10.2767
16	3518	2.81	10.2658
16	3753	2.91	10.254
16	3993	3.01	10.2413
16	4228	3.11	10.2278
16	4463	3.21	10.2133
16	4698	3.31	10.198
16	4933	3.41	10.1819
16	5168	3.51	10.165
16	5403	3.61	10.1472
16	5638	3.71	10.1287
16	5873	3.81	10.1095
16	6108	3.91	10.0895
16	6348	4.01	10.0688
16	6583	4.11	10.0474
16	6818	4.21	10.0253
16	7053	4.31	10.0026
16	7288	4.41	9.97922
16	7523	4.51	9.95526
16	7758	4.61	9.93072
16	7993	4.71	9.90561
16	8228	4.81	9.87995
16	8463	4.91	9.85377
16	8703	5.01	9.82709
16	8938	5.11	9.79993
16	9173	5.21	9.7723
16	9408	5.31	9.74423
16	9643	5.41	9.71574
16	9878	5.51	9.68684
16	10113	5.61	9.65756
16	10348	5.71	9.62791
16	10583	5.81	9.59792
16	10818	5.91	9.56759
16	11058	6.01	9.53696
16	11293	6.11	9.50603
16	11528	6.21	9.47482
16	11763	6.31	9.44335
16	11998	6.41	9.41164
16	12233	6.51	9.3797
16	12468	6.61	9.34755
16	12703	6.71	9.3152
16	12938	6.81	9.28267
16	13173	6.91	9.24997
16	13413	7.01	9.21712
16	13648	7.11	9.18413
16	13883	7.21	9.15102
16	14118	7.31	9.11779
16	14353	7.41	9.08447
16	14588	7.51	9.05106
16	14823	7.61	9.01758
16	15058	7.71	8.98403
16	15293	7.81	8.95044
16	15528	7.91	8.91681
16	15768	8.01	8.88315
16	16003	8.11	8.84947
16	16238	8.21	8.81579
16	16473	8.31	8.78211
16	16708	8.41	8.74845
16	16943	8.51	8.71481
16	17178	8.61	8.6812
16	17413	8.71	8.64763
16	17648	8.81	8.61412
16	17883	8.91	8.58066
16	18123	9.01	8.54727
16	18358	9.11	8.51395
16	18593	9.21	8.48071
16	18828	9.31	8.44757
16	19063	9.41	8.41452
16	19298	9.51	8.38157
16	19533	9.61	8.34873
16	19768	9.71	8.31601
16	20003	9.81	8.28341
16	20238	9.91	8.25094
16	20478	10.01	8.2186
16	20713	10.11	8.1864
16	20948	10.21	8.15434
16	21183	10.31	8.12243
16	21418	10.41	8.09068
16	21653	10.51	8.05909
16	21888	10.61	8.02765
16	22123	10.71	7.99639
16	22358	10.81	7.96529
16	22593	10.91	7.93437
16	22833	11.01	7.90362
16	23068	11.11	7.87306
16	23303	11.21	7.84268
16	23538	11.31	7.81249
16	23773	11.41	7.78249
16	24008	11.51	7.75269
16	24243	11.61	7.72308
16	24478	11.71	7.69366
16	24713	11.81	7.66445
16	24948	11.91	7.63544
16	25188	12.01	7.60664
16	25423	12.11	7.57804
16	25658	12.21	7.54965
17	230	1.11	0
17	390	1.21	-4.25662e-06
17	550	1.31	-0.000746314
17	710	1.41	-0.00327025
17	871	1.51	-0.00727596
17	1031	1.61	-0.0124924
17	1191	1.71	-0.0186909
17	1352	1.81	-0.0256785
17	1512	1.91	-0.0332922
17	1679	2.01	-0.041395
17	1872	2.11	-0.0498707
17	2107	2.21	-0.0586217
17	2342	2.31	-0.067566
17	2577	2.41	-0.0766338
17	2812	2.51	-0.0857666
17	3048	2.61	-0.0949154
17	3283	2.71	-0.104039
17	3518	2.81	-0.113103
17	3753	2.91	-0.122078
17	3993	3.01	-0.13094
17	4228	3.11	-0.139669
17	4463	3.21	-0.148248
17	4698	3.31	-0.156662
17	4933	3.41	-0.164901
17	5168	3.51	-0.172954
17	5403	3.61	-0.180816
17	5638	3.71	-0.188478
17	5873	3.81	-0.195938
17	6108	3.91	-0.20319
17	6348	4.01	-0.210234
17	6583	4.11	-0.217065
17	6818	4.21	-0.223685
17	7053	4.31	-0.230091
17	7288	4.41	-0.236284
17	7523	4.51	-0.242265
17	7758	4.61	-0.248034
17	7993	4.71	-0.253593
17	8228	4.81	-0.258943
17	8463	4.91	-0.264086
17	8703	5.01	-0.269025
17	8938	5.11	-0.273761
17	9173	5.21	-0.278297
17	9408	5.31	-0.282635
17	9643	5.41	-0.286778
17	9878	5.51	-0.29073
17	10113	5.61	-0.294492
17	10348	5.71	-0.298068
17	10583	5.81	-0.301462
17	10818	5.91	-0.304677
17	11058	6.01	-0.307715
17	11293	6.11	-0.31058
17	11528	6.21	-0.313275
17	11763	6.31	-0.315805
17	11998	6.41	-0.318171
17	12233	6.51	-0.320379
17	12468	6.61	-0.32243
17	12703	6.71	-0.324329
17	12938	6.81	-0.326079
17	13173	6.91	-0.327683
17	13413	7.01	-0.329145
17	13648	7.11	-0.330468
17	13883	7.21	-0.331656
17	14118	7.31	-0.332712
17	14353	7.41	-0.333639
17	14588	7.51	-0.33444
17	14823	7.61	-0.33512
17	15058	7.71	-0.335681
17	15293	7.81	-0.336127
17	15528	7.91	-0.33646
17	15768	8.01	-0.336684
17	16003	8.11	-0.336803
17	16238	8.21	-0.336818
17	16473	8.31	-0.336734
17	16708	8.41	-0.336553
17	16943	8.51	-0.336279
17	17178	8.61	-0.335913
17	17413	8.71	-0.335459
17	17648	8.81	-0.334921
17	17883	8.91	-0.334299
17	18123	9.01	-0.333598
17	18358	9.11	-0.33282
17	18593	9.21	-0.331967
17	18828	9.31	-0.331043
17	19063	9.41	-0.33005
17	19298	9.51	-0.32899
17	19533	9.61	-0.327865
17	19768	9.71	-0.326679
17	20003	9.81	-0.325433
17	20238	9.91	-0.32413
17	20478	10.01	-0.322772
17	20713	10.11	-0.321361
17	20948	10.21	-0.319899
17	21183	10.31	-0.318389
17	21418	10.41	-0.316833
17	21653	10.51	-0.315232
17	21888	10.61	-0.313588
17	22123	10.71	-0.311904
17	22358	10.81	-0.310182
17	22593	10.91	-0.308422
17	22833	11.01	-0.306628
17	23068	11.11	-0.304799
17	23303	11.21	-0.30294
17	23538	11.31	-0.30105
17	23773	11.41	-0.299132
17	24008	11.51	-0.297187
17	24243	11.61	-0.295217
17	24478	11.71	-0.293224
17	24713	11.81	-0.291208
17	24948	11.91	-0.289171
17	25188	12.01	-0.287115
17	25423	12.11	-0.28504
17	25658	12.21	-0.282949
18	230	1.11	2
18	390	1.21	2
18	550	1.31	2
18	710	1.41	2
18	871	1.51	2
18	1031	1.61	2
18	1191	1.71	2
18	1352	1.81	2
18	1512	1.91	2
18	1679	2.01	2
18	1872	2.11	2
18	2107	2.21	2
18	2342	2.31	2
18	2577	2.41	2
18	2812	2.51	2
18	3048	2.61	2
18	3283	2.71	2
18	3518	2.81	2
18	3753	2.91	2
18	3993	3.01	2
18	4228	3.11	2
18	4463	3.21	2
18	4698	3.31	2
18	4933	3.41	2
18	5168	3.51	2
18	5403	3.61	2
18	5638	3.71	2
18	5873	3.81	2
18	6108	3.91	2
18	6348	4.01	2
18	6583	4.11	2
18	6818	4.21	2
18	7053	4.31	2
18	7288	4.41	2
18	7523	4.51	2
18	7758	4.61	2
18	7993	4.71	2
18	8228	4.81	2
18	8463	4.91	2
18	8703	5.01	2
18	8938	5.11	2
18	9173	5.21	2
18	9408	5.31	2
18	9643	5.41	2
18	9878	5.51	2
18	10113	5.61	2
18	10348	5.71	2
18	10583	5.81	2
18	10818	5.91	2
18	11058	6.01	2
18	11293	6.11	2
18	11528	6.21	2
18	11763	6.31	2
18	11998	6.41	2
18	12233	6.51	2
18	12468	6.61	2
18	12703	6.71	2
18	12938	6.81	2
18	13173	6.91	2
18	13413	7.01	2
18	13648	7.11	2
18	13883	7.21	2
18	14118	7.31	2
18	14353	7.41	2
18	14588	7.51	2
18	14823	7.61	2
18	15058	7.71	2
18	15293	7.81	2
18	15528	7.91	2
18	15768	8.01	2
18	16003	8.11	2
18	16238	8.21	2
18	16473	8.31	2
18	16708	8.41	2
18	16943	8.51	2
18	17178	8.61	2
18	17413	8.71	2
18	17648	8.81	2
18	17883	8.91	2
18	18123	9.01	2
18	18358	9.11	2
18	18593	9.21	2
18	18828	9.31	2
18	19063	9.41	2
18	19298	9.51	2
18	19533	9.61	2
18	19768	9.71	2
18	20003	9.81	2
18	20238	9.91	2
18	20478	10.01	2
18	20713	10.11	2
18	20948	10.21	2
18	21183	10.31	2
18	21418	10.41	2
18	21653	10.51	2
18	21888	10.61	2
18	22123	10.71	2
18	22358	10.81	2
18	22593	10.91	2
18	22833	11.01	2
18	23068	11.11	2
18	23303	11.21	2
18	23538	11.31	2
18	23773	11.41	2
18	24008	11.51	2
18	24243	11.61	2
18	24478	11.71	2
18	24713	11.81	2
18	24948	11.91	2
18	25188	12.01	2
18	25423	12.11	2
18	25658	12.21	2
19	230	1.11	0
19	390	1.21	0.0200274
19	550	1.31	0.0699786
19	710	1.41	0.11413
19	871	1.51	0.149754
19	1031	1.61	0.178153
19	1191	1.71	0.200432
19	1352	1.81	0.217531
19	1512	1.91	0.230266
19	1679	2.01	0.23932
19	1872	2.11	0.24528
19	2107	2.21	0.24865
19	2342	2.31	0.249851
19	2577	2.41	0.249246
19	2812	2.51	0.247149
19	3048	2.61	0.24382
19	3283	2.71	0.239488
19	3518	2.81	0.234336
19	3753	2.91	0.228526
19	3993	3.01	0.2222
19	4228	3.11	0.215473
19	4463	3.21	0.208439
19	4698	3.31	0.201187
19	4933	3.41	0.193782
19	5168	3.51	0.186288
19	5403	3.61	0.178754
19	5638	3.71	0.171218
19	5873	3.81	0.163713
19	6108	3.91	0.156274
19	6348	4.01	0.148922
19	6583	4.11	0.141674
19	6818	4.21	0.134549
19	7053	4.31	0.127562
19	7288	4.41	0.120717
19	7523	4.51	0.114026
19	7758	4.61	0.107492
19	7993	4.71	0.101122
19	8228	4.81	0.0949221
19	8463	4.91	0.088889
19	8703	5.01	0.0830282
19	8938	5.11	0.0773352
19	9173	5.21	0.0718129
19	9408	5.31	0.0664616
19	9643	5.41	0.0612776
19	9878	5.51	0.0562554
19	10113	5.61	0.0513975
19	10348	5.71	0.0466979
19	10583	5.81	0.0421569
19	10818	5.91	0.0377668
19	11058	6.01	0.0335266
19	11293	6.11	0.0294363
19	11528	6.21	0.02549
19	11763	6.31	0.0216854
19	11998	6.41	0.0180199
19	12233	6.51	0.0144861
19	12468	6.61	0.0110846
19	12703	6.71	0.00780775
19	12938	6.81	0.00465516
19	13173	6.91	0.00162737
19	13413	7.01	-0.00128501
19	13648	7.11	-0.00408389
19	13883	7.21	-0.0067698
19	14118	7.31	-0.00934853
19	14353	7.41	-0.0118224
19	14588	7.51	-0.014193
19	14823	7.61	-0.0164629
19	15058	7.71	-0.018639
19	15293	7.81	-0.0207203
19	15528	7.91	-0.0227134
19	15768	8.01	-0.0246177
19	16003	8.11	-0.0264359
19	16238	8.21	-0.0281718
19	16473	8.31	-0.0298294
19	16708	8.41	-0.0314081
19	16943	8.51	-0.0329115
19	17178	8.61	-0.0343442
19	17413	8.71	-0.0357061
19	17648	8.81	-0.0370011
19	17883	8.91	-0.0382297
19	18123	9.01	-0.0393916
19	18358	9.11	-0.0404919
19	18593	9.21	-0.0415358
19	18828	9.31	-0.0425196
19	19063	9.41	-0.0434474
19	19298	9.51	-0.0443207
19	19533	9.61	-0.0451445
19	19768	9.71	-0.0459156
19	20003	9.81	-0.0466385
19	20238	9.91	-0.0473149
19	20478	10.01	-0.0479458
19	20713	10.11	-0.048532
19	20948	10.21	-0.0490748
19	21183	10.31	-0.0495756
19	21418	10.41	-0.0500402
19	21653	10.51	-0.0504658
19	21888	10.61	-0.0508531
19	22123	10.71	-0.0512037
19	22358	10.81	-0.0515238
19	22593	10.91	-0.0518107
19	22833	11.01	-0.0520652
19	23068	11.11	-0.0522889
19	23303	11.21	-0.0524835
19	23538	11.31	-0.0526463
19	23773	11.41	-0.052783
19	24008	11.51	-0.0528963
19	24243	11.61	-0.0529829
19	24478	11.71	-0.053044
19	24713	11.81	-0.0530817
19	24948	11.91	-0.0530978
19	25188	12.01	-0.0530941
19	25423	12.11	-0.0530678
19	25658	12.21	-0.0530246
20	230	1.11	0
20	390	1.21	0.212352
20	550	1.31	0.317032
20	710	1.41	0.314754
20	871	1.51	0.310988
20	1031	1.61	0.306023
20	1191	1.71	0.300045
20	1352	1.81	0.293252
20	1512	1.91	0.285871
20	1679	2.01	0.27796
20	1872	2.11	0.269683
20	2107	2.21	0.261141
20	2342	2.31	0.252381
20	2577	2.41	0.243488
20	2812	2.51	0.234566
20	3048	2.61	0.225605
20	3283	2.71	0.216703
20	3518	2.81	0.207824
20	3753	2.91	0.199041
20	3993	3.01	0.190402
20	4228	3.11	0.181876
20	4463	3.21	0.173494
20	4698	3.31	0.165297
20	4933	3.41	0.157246
20	5168	3.51	0.149411
20	5403	3.61	0.141749
20	5638	3.71	0.134254
20	5873	3.81	0.126957
20	6108	3.91	0.119888
20	6348	4.01	0.112995
20	6583	4.11	0.106275
20	6818	4.21	0.0997844
20	7053	4.31	0.093487
20	7288	4.41	0.0873472
20	7523	4.51	0.0814187
20	7758	4.61	0.0756645
20	7993	4.71	0.0701073
20	8228	4.81	0.0647395
20	8463	4.91	0.0595231
20	8703	5.01	0.0545103
20	8938	5.11	0.049633
20	9173	5.21	0.0449531
20	9408	5.31	0.0404326
20	9643	5.41	0.0360632
20	9878	5.51	0.0318268
20	10113	5.61	0.0277757
20	10348	5.71	0.023842
20	10583	5.81	0.020078
20	10818	5.91	0.0164164
20	11058	6.01	0.0129097
20	11293	6.11	0.00955079
20	11528	6.21	0.00630248
20	11763	6.31	0.00318781
20	11998	6.41	0.000200055
20	12233	6.51	-0.00269733
20	12468	6.61	-0.00545081
20	12703	6.71	-0.00812651
20	12938	6.81	-0.0106705
20	13173	6.91	-0.0130886
20	13413	7.01	-0.0154469
20	13648	7.11	-0.0176905
20	13883	7.21	-0.0198251
20	14118	7.31	-0.0218859
20	14353	7.41	-0.0238478
20	14588	7.51	-0.0257159
20	14823	7.61	-0.027495
20	15058	7.71	-0.0292198
20	15293	7.81	-0.0308346
20	15528	7.91	-0.0324037
20	15768	8.01	-0.0338714
20	16003	8.11	-0.0352718
20	16238	8.21	-0.0366088
20	16473	8.31	-0.0378862
20	16708	8.41	-0.0390775
20	16943	8.51	-0.0402166
20	17178	8.61	-0.0413067
20	17413	8.71	-0.0423211
20	17648	8.81	-0.043293
20	17883	8.91	-0.0441957
20	18123	9.01	-0.0450319
20	18358	9.11	-0.0458349
20	18593	9.21	-0.0466073
20	18828	9.31	-0.0472917
20	19063	9.41	-0.0479509
20	19298	9.51	-0.0485574
20	19533	9.61	-0.0491437
20	19768	9.71	-0.0496519
20	20003	9.81	-0.0501446
20	20238	9.91	-0.0505938
20	20478	10.01	-0.0510017
20	20713	10.11	-0.0513702
20	20948	10.21	-0.0517016
20	21183	10.31	-0.0519976
20	21418	10.41	-0.0522901
20	21653	10.51	-0.0525209
20	21888	10.61	-0.0527216
20	22123	10.71	-0.0528941
20	22358	10.81	-0.0530698
20	22593	10.91	-0.0531902
20	22833	11.01	-0.0532869
20	23068	11.11	-0.0533612
20	23303	11.21	-0.0534146
20	23538	11.31	-0.0534185
20	23773	11.41	-0.0534341
20	24008	11.51	-0.0534327
20	24243	11.61	-0.0533854
20	24478	11.71	-0.0533233
20	24713	11.81	-0.0532477
20	24948	11.91	-0.0531596
20	25188	12.01	-0.0530598
20	25423	12.11	-0.0529196
20	25658	12.21	-0.0527996
21	230	1.11	27.78
21	390	1.21	27.7806
21	550	1.31	27.7853
21	710	1.41	27.7948
21	871	1.51	27.8082
21	1031	1.61	27.8248
21	1191	1.71	27.8439
21	1352	1.81	27.8649
21	1512	1.91	27.8874
21	1679	2.01	27.911
21	1872	2.11	27.9352
21	2107	2.21	27.96
21	2342	2.31	27.9849
21	2577	2.41	28.0099
21	2812	2.51	28.0347
21	3048	2.61	28.0592
21	3283	2.71	28.0834
21	3518	2.81	28.1071
21	3753	2.91	28.1302
21	3993	3.01	28.1527
21	4228	3.11	28.1745
21	4463	3.21	28.1957
21	4698	3.31	28.2162
21	4933	3.41	28.2359
21	5168	3.51	28.2548
21	5403	3.61	28.273
21	5638	3.71	28.2905
21	5873	3.81	28.3072
21	6108	3.91	28.3232
21	6348	4.01	28.3384
21	6583	4.11	28.3529
21	6818	4.21	28.3667
21	7053	4.31	28.3797
21	7288	4.41	28.3921
21	7523	4.51	28.4038
21	7758	4.61	28.4149
21	7993	4.71	28.4253
21	8228	4.81	28.435
21	8463	4.91	28.4442
21	8703	5.01	28.4527
21	8938	5.11	28.4607
21	9173	5.21	28.4682
21	9408	5.31	28.4751
21	9643	5.41	28.4814
21	9878	5.51	28.4873
21	10113	5.61	28.4926
21	10348	5.71	28.4975
21	10583	5.81	28.5019
21	10818	5.91	28.5059
21	11058	6.01	28.5094
21	11293	6.11	28.5126
21	11528	6.21	28.5153
21	11763	6.31	28.5176
21	11998	6.41	28.5196
21	12233	6.51	28.5212
21	12468	6.61	28.5225
21	12703	6.71	28.5234
21	12938	6.81	28.524
21	13173	6.91	28.5243
21	13413	7.01	28.5243
21	13648	7.11	28.524
21	13883	7.21	28.5234
21	14118	7.31	28.5226
21	14353	7.41	28.5216
21	14588	7.51	28.5202
21	14823	7.61	28.5187
21	15058	7.71	28.5169
21	15293	7.81	28.515
21	15528	7.91	28.5128
21	15768	8.01	28.5104
21	16003	8.11	28.5078
21	16238	8.21	28.5051
21	16473	8.31	28.5022
21	16708	8.41	28.4991
21	16943	8.51	28.4959
21	17178	8.61	28.4925
21	17413	8.71	28.489
21	17648	8.81	28.4854
21	17883	8.91	28.4816
21	18123	9.01	28.4777
21	18358	9.11	28.4737
21	18593	9.21	28.4696
21	18828	9.31	28.4654
21	19063	9.41	28.4611
21	19298	9.51	28.4567
21	19533	9.61	28.4522
21	19768	9.71	28.4477
21	20003	9.81	28.443
21	20238	9.91	28.4383
21	20478	10.01	28.4336
21	20713	10.11	28.4287
21	20948	10.21	28.4239
21	21183	10.31	28.4189
21	21418	10.41	28.4139
21	21653	10.51	28.4089
21	21888	10.61	28.4038
21	22123	10.71	28.3987
21	22358	10.81	28.3936
21	22593	10.91	28.3884
21	22833	11.01	28.3832
21	23068	11.11	28.378
21	23303	11.21	28.3728
21	23538	11.31	28.3675
21	23773	11.41	28.3622
21	24008	11.51	28.357
21	24243	11.61	28.3517
21	24478	11.71	28.3464
21	24713	11.81	28.3411
21	24948	11.91	28.3357
21	25188	12.01	28.3304
21	25423	12.11	28.3251
21	25658	12.21	28.3198
22	230	1.11	25.2702
22	390	1.21	28.0482
22	550	1.31	30.8265
22	710	1.41	33.6055
22	871	1.51	36.3857
22	1031	1.61	39.1674
22	1191	1.71	41.9509
22	1352	1.81	44.7364
22	1512	1.91	47.5242
22	1679	2.01	50.3142
22	1872	2.11	53.1066
22	2107	2.21	55.9015
22	2342	2.31	58.6989
22	2577	2.41	61.4987
22	2812	2.51	64.3011
22	3048	2.61	67.1059
22	3283	2.71	69.9132
22	3518	2.81	72.7228
22	3753	2.91	75.5348
22	3993	3.01	78.3491
22	4228	3.11	81.1655
22	4463	3.21	83.9842
22	4698	3.31	86.8049
22	4933	3.41	89.6276
22	5168	3.51	92.4522
22	5403	3.61	95.2787
22	5638	3.71	98.107
22	5873	3.81	100.937
22	6108	3.91	103.769
22	6348	4.01	106.602
22	6583	4.11	109.436
22	6818	4.21	112.272
22	7053	4.31	115.11
22	7288	4.41	117.948
22	7523	4.51	120.788
22	7758	4.61	123.629
22	7993	4.71	126.471
22	8228	4.81	129.314
22	8463	4.91	132.158
22	8703	5.01	135.003
22	8938	5.11	137.849
22	9173	5.21	140.696
22	9408	5.31	143.543
22	9643	5.41	146.391
22	9878	5.51	149.239
22	10113	5.61	152.088
22	10348	5.71	154.938
22	10583	5.81	157.788
22	10818	5.91	160.638
22	11058	6.01	163.489
22	11293	6.11	166.34
22	11528	6.21	169.191
22	11763	6.31	172.043
22	11998	6.41	174.895
22	12233	6.51	177.747
22	12468	6.61	180.599
22	12703	6.71	183.451
22	12938	6.81	186.304
22	13173	6.91	189.156
22	13413	7.01	192.009
22	13648	7.11	194.861
22	13883	7.21	197.713
22	14118	7.31	200.566
22	14353	7.41	203.418
22	14588	7.51	206.27
22	14823	7.61	209.122
22	15058	7.71	211.974
22	15293	7.81	214.825
22	15528	7.91	217.677
22	15768	8.01	220.528
22	16003	8.11	223.379
22	16238	8.21	226.229
22	16473	8.31	229.08
22	16708	8.41	231.93
22	16943	8.51	234.78
22	17178	8.61	237.629
22	17413	8.71	240.478
22	17648	8.81	243.327
22	17883	8.91	246.175
22	18123	9.01	249.023
22	18358	9.11	251.871
22	18593	9.21	254.718
22	18828	9.31	257.564
22	19063	9.41	260.411
22	19298	9.51	263.257
22	19533	9.61	266.102
22	19768	9.71	268.947
22	20003	9.81	271.791
22	20238	9.91	274.636
22	20478	10.01	277.479
22	20713	10.11	280.322
22	20948	10.21	283.165
22	21183	10.31	286.007
22	21418	10.41	288.849
22	21653	10.51	291.69
22	21888	10.61	294.53
22	22123	10.71	297.37
22	22358	10.81	300.21
22	22593	10.91	303.049
22	22833	11.01	305.888
22	23068	11.11	308.726
22	23303	11.21	311.563
22	23538	11.31	314.4
22	23773	11.41	317.237
22	24008	11.51	320.073
22	24243	11.61	322.908
22	24478	11.71	325.743
22	24713	11.81	328.577
22	24948	11.91	331.411
22	25188	12.01	334.244
22	25423	12.11	337.077
22	25658	12.21	339.909
23	230	1.11	75.2
23	390	1.21	75.2
23	550	1.31	75.2
23	710	1.41	75.2
23	871	1.51	75.2
23	1031	1.61	75.2
23	1191	1.71	75.2
23	1352	1.81	75.2
23	1512	1.91	75.2
23	1679	2.01	75.2
23	1872	2.11	75.2
23	2107	2.21	75.2
23	2342	2.31	75.2
23	2577	2.41	75.2
23	2812	2.51	75.2
23	3048	2.61	75.2
23	3283	2.71	75.2
23	3518	2.81	75.2
23	3753	2.91	75.2
23	3993	3.01	75.2
23	4228	3.11	75.2
23	4463	3.21	75.2
23	4698	3.31	75.2
23	4933	3.41	75.2
23	5168	3.51	75.2
23	5403	3.61	75.2
23	5638	3.71	75.2
23	5873	3.81	75.2
23	6108	3.91	75.2
23	6348	4.01	75.2
23	6583	4.11	75.2
23	6818	4.21	75.2
23	7053	4.31	75.2
23	7288	4.41	75.2
23	7523	4.51	75.2
23	7758	4.61	75.2
23	7993	4.71	75.2
23	8228	4.81	75.2
23	8463	4.91	75.2
23	8703	5.01	75.2
23	8938	5.11	75.2
23	9173	5.21	75.2
23	9408	5.31	75.2
23	9643	5.41	75.2
23	9878	5.51	75.2
23	10113	5.61	75.2
23	10348	5.71	75.2
23	10583	5.81	75.2
23	10818	5.91	75.2
23	11058	6.01	75.2
23	11293	6.11	75.2
23	11528	6.21	75.2
23	11763	6.31	75.2
23	11998	6.41	75.2
23	12233	6.51	75.2
23	12468	6.61	75.2
23	12703	6.71	75.2
23	12938	6.81	75.2
23	13173	6.91	75.2
23	13413	7.01	75.2
23	13648	7.11	75.2
23	13883	7.21	75.2
23	14118	7.31	75.2
23	14353	7.41	75.2
23	14588	7.51	75.2
23	14823	7.61	75.2
23	15058	7.71	75.2
23	15293	7.81	75.2
23	15528	7.91	75.2
23	15768	8.01	75.2
23	16003	8.11	75.2
23	16238	8.21	75.2
23	16473	8.31	75.2
23	16708	8.41	75.2
23	16943	8.51	75.2
23	17178	8.61	75.2
23	17413	8.71	75.2
23	17648	8.81	75.2
23	17883	8.91	75.2
23	18123	9.01	75.2
23	18358	9.11	75.2
23	18593	9.21	75.2
23	18828	9.31	75.2
23	19063	9.41	75.2
23	19298	9.51	75.2
23	19533	9.61	75.2
23	19768	9.71	75.2
23	20003	9.81	75.2
23	20238	9.91	75.2
23	20478	10.01	75.2
23	20713	10.11	75.2
23	20948	10.21	75.2
23	21183	10.31	75.2
23	21418	10.41	75.2
23	21653	10.51	75.2
23	21888	10.61	75.2
23	22123	10.71	75.2
23	22358	10.81	75.2
23	22593	10.91	75.2
23	22833	11.01	75.2
23	23068	11.11	75.2
23	23303	11.21	75.2
23	23538	11.31	75.2
23	23773	11.41	75.2
23	24008	11.51	75.2
23	24243	11.61	75.2
23	24478	11.71	75.2
23	24713	11.81	75.2
23	24948	11.91	75.2
23	25188	12.01	75.2
23	25423	12.11	75.2
23	25658	12.21	75.2
24	231	1.11	10.33
24	391	1.21	10.33
24	551	1.31	10.33
24	711	1.41	10.3299
24	872	1.51	10.3298
24	1032	1.61	10.3295
24	1192	1.71	10.3289
24	1353	1.81	10.328
24	1513	1.91	10.3267
24	1680	2.01	10.325
24	1873	2.11	10.323
24	2108	2.21	10.3204
24	2343	2.31	10.3174
24	2578	2.41	10.314
24	2813	2.51	10.31
24	3049	2.61	10.3054
24	3284	2.71	10.3004
24	3519	2.81	10.2948
24	3754	2.91	10.2887
24	3994	3.01	10.2821
24	4229	3.11	10.2749
24	4464	3.21	10.2671
24	4699	3.31	10.2588
24	4934	3.41	10.25
24	5169	3.51	10.2406
24	5404	3.61	10.2307
24	5639	3.71	10.2202
24	5874	3.81	10.2093
24	6109	3.91	10.1977
24	6349	4.01	10.1857
24	6584	4.11	10.1731
24	6819	4.21	10.16
24	7054	4.31	10.1464
24	7289	4.41	10.1323
24	7524	4.51	10.1178
24	7759	4.61	10.1027
24	7994	4.71	10.0871
24	8229	4.81	10.0711
24	8464	4.91	10.0546
24	8704	5.01	10.0377
24	8939	5.11	10.0203
24	9174	5.21	10.0024
24	9409	5.31	9.98417
24	9644	5.41	9.96548
24	9879	5.51	9.94638
24	10114	5.61	9.92688
24	10349	5.71	9.90698
24	10584	5.81	9.8867
24	10819	5.91	9.86604
24	11059	6.01	9.84501
24	11294	6.11	9.82363
24	11529	6.21	9.8019
24	11764	6.31	9.77983
24	11999	6.41	9.75743
24	12234	6.51	9.73471
24	12469	6.61	9.71169
24	12704	6.71	9.68836
24	12939	6.81	9.66474
24	13174	6.91	9.64084
24	13414	7.01	9.61668
24	13649	7.11	9.59224
24	13884	7.21	9.56756
24	14119	7.31	9.54263
24	14354	7.41	9.51747
24	14589	7.51	9.49208
24	14824	7.61	9.46648
24	15059	7.71	9.44067
24	15294	7.81	9.41466
24	15529	7.91	9.38846
24	15769	8.01	9.36208
24	16004	8.11	9.33554
24	16239	8.21	9.30882
24	16474	8.31	9.28196
24	16709	8.41	9.25494
24	16944	8.51	9.22779
24	17179	8.61	9.20052
24	17414	8.71	9.17311
24	17649	8.81	9.1456
24	17884	8.91	9.11798
24	18124	9.01	9.09026
24	18359	9.11	9.06245
24	18594	9.21	9.03456
24	18829	9.31	9.00659
24	19064	9.41	8.97855
24	19299	9.51	8.95045
24	19534	9.61	8.9223
24	19769	9.71	8.8941
24	20004	9.81	8.86586
24	20239	9.91	8.83758
24	20479	10.01	8.80928
24	20714	10.11	8.78095
24	20949	10.21	8.75261
24	21184	10.31	8.72426
24	21419	10.41	8.69591
24	21654	10.51	8.66755
24	21889	10.61	8.63921
24	22124	10.71	8.61088
24	22359	10.81	8.58257
24	22594	10.91	8.55428
24	22834	11.01	8.52603
24	23069	11.11	8.49781
24	23304	11.21	8.46962
24	23539	11.31	8.44149
24	23774	11.41	8.4134
24	24009	11.51	8.38536
24	24244	11.61	8.35739
24	24479	11.71	8.32947
24	24714	11.81	8.30163
24	24949	11.91	8.27385
24	25189	12.01	8.24615
24	25424	12.11	8.21853
24	25659	12.21	8.19099
25	231	1.11	0
25	391	1.21	1.14595e-06
25	551	1.31	-0.000169982
25	711	1.41	-0.000780802
25	872	1.51	-0.00225563
25	1032	1.61	-0.0044533
25	1192	1.71	-0.00725523
25	1353	1.81	-0.0105624
25	1513	1.91	-0.0142914
25	1680	2.01	-0.0183716
25	1873	2.11	-0.0227441
25	2108	2.21	-0.0273585
25	2343	2.31	-0.0321722
25	2578	2.41	-0.0371493
25	2813	2.51	-0.0422588
25	3049	2.61	-0.0474741
25	3284	2.71	-0.0527725
25	3519	2.81	-0.0581341
25	3754	2.91	-0.0635421
25	3994	3.01	-0.0689815
25	4229	3.11	-0.0744392
25	4464	3.21	-0.0799037
25	4699	3.31	-0.0853649
25	4934	3.41	-0.0908138
25	5169	3.51	-0.0962421
25	5404	3.61	-0.101642
25	5639	3.71	-0.107008
25	5874	3.81	-0.112333
25	6109	3.91	-0.117613
25	6349	4.01	-0.122841
25	6584	4.11	-0.128014
25	6819	4.21	-0.133127
25	7054	4.31	-0.138178
25	7289	4.41	-0.143161
25	7524	4.51	-0.148075
25	7759	4.61	-0.152916
25	7994	4.71	-0.157681
25	8229	4.81	-0.162368
25	8464	4.91	-0.166975
25	8704	5.01	-0.1715
25	8939	5.11	-0.175941
25	9174	5.21	-0.180296
25	9409	5.31	-0.184563
25	9644	5.41	-0.188741
25	9879	5.51	-0.19283
25	10114	5.61	-0.196826
25	10349	5.71	-0.200731
25	10584	5.81	-0.204542
25	10819	5.91	-0.20826
25	11059	6.01	-0.211884
25	11294	6.11	-0.215413
25	11529	6.21	-0.218848
25	11764	6.31	-0.222187
25	11999	6.41	-0.22543
25	12234	6.51	-0.228577
25	12469	6.61	-0.23163
25	12704	6.71	-0.234587
25	12939	6.81	-0.23745
25	13174	6.91	-0.240218
25	13414	7.01	-0.242891
25	13649	7.11	-0.245471
25	13884	7.21	-0.247957
25	14119	7.31	-0.250351
25	14354	7.41	-0.252652
25	14589	7.51	-0.254861
25	14824	7.61	-0.25698
25	15059	7.71	-0.259008
25	15294	7.81	-0.260947
25	15529	7.91	-0.262797
25	15769	8.01	-0.26456
25	16004	8.11	-0.266236
25	16239	8.21	-0.267827
25	16474	8.31	-0.269334
25	16709	8.41	-0.270757
25	16944	8.51	-0.272098
25	17179	8.61	-0.273358
25	17414	8.71	-0.274539
25	17649	8.81	-0.27564
25	17884	8.91	-0.276664
25	18124	9.01	-0.277611
25	18359	9.11	-0.278483
25	18594	9.21	-0.27928
25	18829	9.31	-0.280005
25	19064	9.41	-0.280658
25	19299	9.51	-0.281241
25	19534	9.61	-0.281756
25	19769	9.71	-0.282202
25	20004	9.81	-0.282583
25	20239	9.91	-0.282897
25	20479	10.01	-0.283149
25	20714	10.11	-0.283337
25	20949	10.21	-0.283464
25	21184	10.31	-0.28353
25	21419	10.41	-0.283538
25	21654	10.51	-0.283487
25	21889	10.61	-0.283381
25	22124	10.71	-0.283219
25	22359	10.81	-0.283003
25	22594	10.91	-0.282735
25	22834	11.01	-0.282415
25	23069	11.11	-0.282046
25	23304	11.21	-0.281628
25	23539	11.31	-0.281162
25	23774	11.41	-0.280649
25	24009	11.51	-0.280091
25	24244	11.61	-0.279489
25	24479	11.71	-0.278844
25	24714	11.81	-0.278158
25	24949	11.91	-0.27743
25	25189	12.01	-0.276663
25	25424	12.11	-0.275858
25	25659	12.21	-0.275016
26	231	1.11	3
26	391	1.21	3
26	551	1.31	3
26	711	1.41	3
26	872	1.51	3
26	1032	1.61	3
26	1192	1.71	3
26	1353	1.81	3
26	1513	1.91	3
26	1680	2.01	3
26	1873	2.11	3
26	2108	2.21	3
26	2343	2.31	3
26	2578	2.41	3
26	2813	2.51	3
26	3049	2.61	3
26	3284	2.71	3
26	3519	2.81	3
26	3754	2.91	3
26	3994	3.01	3
26	4229	3.11	3
26	4464	3.21	3
26	4699	3.31	3
26	4934	3.41	3
26	5169	3.51	3
26	5404	3.61	3
26	5639	3.71	3
26	5874	3.81	3
26	6109	3.91	3
26	6349	4.01	3
26	6584	4.11	3
26	6819	4.21	3
26	7054	4.31	3
26	7289	4.41	3
26	7524	4.51	3
26	7759	4.61	3
26	7994	4.71	3
26	8229	4.81	3
26	8464	4.91	3
26	8704	5.01	3
26	8939	5.11	3
26	9174	5.21	3
26	9409	5.31	3
26	9644	5.41	3
26	9879	5.51	3
26	10114	5.61	3
26	10349	5.71	3
26	10584	5.81	3
26	10819	5.91	3
26	11059	6.01	3
26	11294	6.11	3
26	11529	6.21	3
26	11764	6.31	3
26	11999	6.41	3
26	12234	6.51	3
26	12469	6.61	3
26	12704	6.71	3
26	12939	6.81	3
26	13174	6.91	3
26	13414	7.01	3
26	13649	7.11	3
26	13884	7.21	3
26	14119	7.31	3
26	14354	7.41	3
26	14589	7.51	3
26	14824	7.61	3
26	15059	7.71	3
26	15294	7.81	3
26	15529	7.91	3
26	15769	8.01	3
26	16004	8.11	3
26	16239	8.21	3
26	16474	8.31	3
26	16709	8.41	3
26	16944	8.51	3
26	17179	8.61	3
26	17414	8.71	3
26	17649	8.81	3
26	17884	8.91	3
26	18124	9.01	3
26	18359	9.11	3
26	18594	9.21	3
26	18829	9.31	3
26	19064	9.41	3
26	19299	9.51	3
26	19534	9.61	3
26	19769	9.71	3
26	20004	9.81	3
26	20239	9.91	3
26	20479	10.01	3
26	20714	10.11	3
26	20949	10.21	3
26	21184	10.31	3
26	21419	10.41	3
26	21654	10.51	3
26	21889	10.61	3
26	22124	10.71	3
26	22359	10.81	3
26	22594	10.91	3
26	22834	11.01	3
26	23069	11.11	3
26	23304	11.21	3
26	23539	11.31	3
26	23774	11.41	3
26	24009	11.51	3
26	24244	11.61	3
26	24479	11.71	3
26	24714	11.81	3
26	24949	11.91	3
26	25189	12.01	3
26	25424	12.11	3
26	25659	12.21	3
27	231	1.11	0
27	391	1.21	0.0199897
27	551	1.31	0.0717585
27	711	1.41	0.124382
27	872	1.51	0.167979
27	1032	1.61	0.203041
27	1192	1.71	0.230893
27	1353	1.81	0.252651
27	1513	1.91	0.269266
27	1680	2.01	0.281553
27	1873	2.11	0.290199
27	2108	2.21	0.295784
27	2343	2.31	0.29881
27	2578	2.41	0.299692
27	2813	2.51	0.298792
27	3049	2.61	0.296416
27	3284	2.71	0.292818
27	3519	2.81	0.288219
27	3754	2.91	0.282803
27	3994	3.01	0.276729
27	4229	3.11	0.270129
27	4464	3.21	0.263117
27	4699	3.31	0.255787
27	4934	3.41	0.248222
27	5169	3.51	0.240486
27	5404	3.61	0.23264
27	5639	3.71	0.22473
27	5874	3.81	0.216795
27	6109	3.91	0.20887
27	6349	4.01	0.200986
27	6584	4.11	0.193169
27	6819	4.21	0.185431
27	7054	4.31	0.177793
27	7289	4.41	0.170267
27	7524	4.51	0.162862
27	7759	4.61	0.155586
27	7994	4.71	0.148448
27	8229	4.81	0.141457
27	8464	4.91	0.134614
27	8704	5.01	0.12792
27	8939	5.11	0.121378
27	9174	5.21	0.114987
27	9409	5.31	0.108753
27	9644	5.41	0.102672
27	9879	5.51	0.0967438
27	10114	5.61	0.0909659
27	10349	5.71	0.08534
27	10584	5.81	0.0798658
27	10819	5.91	0.0745367
27	11059	6.01	0.0693548
27	11294	6.11	0.0643162
27	11529	6.21	0.0594158
27	11764	6.31	0.0546549
27	11999	6.41	0.0500315
27	12234	6.51	0.045547
27	12469	6.61	0.0411892
27	12704	6.71	0.0369651
27	12939	6.81	0.0328663
27	13174	6.91	0.0288878
27	13414	7.01	0.0250346
27	13649	7.11	0.0213005
27	13884	7.21	0.0176831
27	14119	7.31	0.0141797
27	14354	7.41	0.0107842
27	14589	7.51	0.00749778
27	14824	7.61	0.00432079
27	15059	7.71	0.00124755
27	15294	7.81	-0.00172581
27	15529	7.91	-0.00459836
27	15769	8.01	-0.00737478
27	16004	8.11	-0.0100556
27	16239	8.21	-0.0126391
27	16474	8.31	-0.0151348
27	16709	8.41	-0.0175422
27	16944	8.51	-0.0198635
27	17179	8.61	-0.0220992
27	17414	8.71	-0.0242552
27	17649	8.81	-0.0263351
27	17884	8.91	-0.0283351
27	18124	9.01	-0.0302597
27	18359	9.11	-0.0321089
27	18594	9.21	-0.0338855
27	18829	9.31	-0.0355929
27	19064	9.41	-0.0372296
27	19299	9.51	-0.0387994
27	19534	9.61	-0.0403042
27	19769	9.71	-0.0417484
27	20004	9.81	-0.0431316
27	20239	9.91	-0.0444534
27	20479	10.01	-0.0457169
27	20714	10.11	-0.046925
27	20949	10.21	-0.0480809
27	21184	10.31	-0.0491779
27	21419	10.41	-0.0502247
27	21654	10.51	-0.0512232
27	21889	10.61	-0.0521696
27	22124	10.71	-0.0530682
27	22359	10.81	-0.053919
27	22594	10.91	-0.0547241
27	22834	11.01	-0.0554862
27	23069	11.11	-0.0562052
27	23304	11.21	-0.0568814
27	23539	11.31	-0.0575203
27	23774	11.41	-0.0581148
27	24009	11.51	-0.0586733
27	24244	11.61	-0.0591969
27	24479	11.71	-0.0596837
27	24714	11.81	-0.0601348
27	24949	11.91	-0.0605514
27	25189	12.01	-0.0609352
27	25424	12.11	-0.0612876
27	25659	12.21	-0.0616077
28	231	1.11	0
28	391	1.21	0.211952
28	551	1.31	0.317263
28	711	1.41	0.36868
28	872	1.51	0.365918
28	1032	1.61	0.361718
28	1192	1.71	0.356409
28	1353	1.81	0.350155
28	1513	1.91	0.343133
28	1680	2.01	0.335535
28	1873	2.11	0.327466
28	2108	2.21	0.318993
28	2343	2.31	0.310285
28	2578	2.41	0.301337
28	2813	2.51	0.292279
28	3049	2.61	0.283148
28	3284	2.71	0.273968
28	3519	2.81	0.264809
28	3754	2.91	0.255662
28	3994	3.01	0.246611
28	4229	3.11	0.237625
28	4464	3.21	0.228761
28	4699	3.31	0.220003
28	4934	3.41	0.211405
28	5169	3.51	0.202916
28	5404	3.61	0.194611
28	5639	3.71	0.186432
28	5874	3.81	0.17843
28	6109	3.91	0.170583
28	6349	4.01	0.162935
28	6584	4.11	0.155459
28	6819	4.21	0.148123
28	7054	4.31	0.14098
28	7289	4.41	0.134011
28	7524	4.51	0.127192
28	7759	4.61	0.120547
28	7994	4.71	0.114083
28	8229	4.81	0.107805
28	8464	4.91	0.101674
28	8704	5.01	0.0956966
28	8939	5.11	0.0898923
28	9174	5.21	0.0842315
28	9409	5.31	0.0787497
28	9644	5.41	0.0734018
28	9879	5.51	0.068208
28	10114	5.61	0.0631534
28	10349	5.71	0.0582585
28	10584	5.81	0.0535135
28	10819	5.91	0.048879
28	11059	6.01	0.0444056
28	11294	6.11	0.0400543
28	11529	6.21	0.035816
28	11764	6.31	0.0317269
28	11999	6.41	0.0277633
28	12234	6.51	0.0239465
28	12469	6.61	0.0201932
28	12704	6.71	0.0166154
28	12939	6.81	0.0131148
28	13174	6.91	0.00971396
28	13414	7.01	0.00646534
28	13649	7.11	0.00330121
28	13884	7.21	0.000244498
28	14119	7.31	-0.00271176
28	14354	7.41	-0.00558954
28	14589	7.51	-0.00835029
28	14824	7.61	-0.0110006
28	15059	7.71	-0.0135768
28	15294	7.81	-0.0160703
28	15529	7.91	-0.0184568
28	15769	8.01	-0.0207722
28	16004	8.11	-0.0229922
28	16239	8.21	-0.0251073
28	16474	8.31	-0.027183
28	16709	8.41	-0.0291646
28	16944	8.51	-0.0310719
28	17179	8.61	-0.032895
28	17414	8.71	-0.0346688
28	17649	8.81	-0.0363825
28	17884	8.91	-0.0379958
28	18124	9.01	-0.0395581
28	18359	9.11	-0.0410435
28	18594	9.21	-0.0424714
28	18829	9.31	-0.0438457
28	19064	9.41	-0.0451403
28	19299	9.51	-0.0463891
28	19534	9.61	-0.0475807
28	19769	9.71	-0.0487338
28	20004	9.81	-0.0498214
28	20239	9.91	-0.0508472
28	20479	10.01	-0.0518295
28	20714	10.11	-0.0527712
28	20949	10.21	-0.0536755
28	21184	10.31	-0.0544852
28	21419	10.41	-0.0552934
28	21654	10.51	-0.0560578
28	21889	10.61	-0.056751
28	22124	10.71	-0.0574207
28	22359	10.81	-0.0580395
28	22594	10.91	-0.058625
28	22834	11.01	-0.0591794
28	23069	11.11	-0.05969
28	23304	11.21	-0.0601591
28	23539	11.31	-0.0606189
28	23774	11.41	-0.0609963
28	24009	11.51	-0.0613838
28	24244	11.61	-0.0617381
28	24479	11.71	-0.0620459
28	24714	11.81	-0.0623243
28	24949	11.91	-0.0625751
28	25189	12.01	-0.0628
28	25424	12.11	-0.0630007
28	25659	12.21	-0.0631637
29	231	1.11	27.78
29	391	1.21	27.7806
29	551	1.31	27.7854
29	711	1.41	27.7956
29	872	1.51	27.8105
29	1032	1.61	27.8293
29	1192	1.71	27.8511
29	1353	1.81	27.8755
29	1513	1.91	27.9017
29	1680	2.01	27.9293
29	1873	2.11	27.958
29	2108	2.21	27.9873
29	2343	2.31	28.0171
29	2578	2.41	28.047
29	2813	2.51	28.077
29	3049	2.61	28.1067
29	3284	2.71	28.1362
29	3519	2.81	28.1652
29	3754	2.91	28.1937
29	3994	3.01	28.2217
29	4229	3.11	28.249
29	4464	3.21	28.2756
29	4699	3.31	28.3015
29	4934	3.41	28.3267
29	5169	3.51	28.3511
29	5404	3.61	28.3747
29	5639	3.71	28.3975
29	5874	3.81	28.4195
29	6109	3.91	28.4408
29	6349	4.01	28.4612
29	6584	4.11	28.4809
29	6819	4.21	28.4998
29	7054	4.31	28.5179
29	7289	4.41	28.5353
29	7524	4.51	28.5519
29	7759	4.61	28.5678
29	7994	4.71	28.5829
29	8229	4.81	28.5974
29	8464	4.91	28.6112
29	8704	5.01	28.6242
29	8939	5.11	28.6367
29	9174	5.21	28.6485
29	9409	5.31	28.6596
29	9644	5.41	28.6702
29	9879	5.51	28.6801
29	10114	5.61	28.6894
29	10349	5.71	28.6982
29	10584	5.81	28.7065
29	10819	5.91	28.7141
29	11059	6.01	28.7213
29	11294	6.11	28.728
29	11529	6.21	28.7341
29	11764	6.31	28.7398
29	11999	6.41	28.745
29	12234	6.51	28.7498
29	12469	6.61	28.7541
29	12704	6.71	28.758
29	12939	6.81	28.7614
29	13174	6.91	28.7645
29	13414	7.01	28.7672
29	13649	7.11	28.7695
29	13884	7.21	28.7714
29	14119	7.31	28.773
29	14354	7.41	28.7742
29	14589	7.51	28.7751
29	14824	7.61	28.7757
29	15059	7.71	28.7759
29	15294	7.81	28.7759
29	15529	7.91	28.7756
29	15769	8.01	28.775
29	16004	8.11	28.7741
29	16239	8.21	28.7729
29	16474	8.31	28.7715
29	16709	8.41	28.7699
29	16944	8.51	28.768
29	17179	8.61	28.7659
29	17414	8.71	28.7635
29	17649	8.81	28.761
29	17884	8.91	28.7583
29	18124	9.01	28.7553
29	18359	9.11	28.7522
29	18594	9.21	28.7489
29	18829	9.31	28.7454
29	19064	9.41	28.7417
29	19299	9.51	28.7379
29	19534	9.61	28.734
29	19769	9.71	28.7299
29	20004	9.81	28.7256
29	20239	9.91	28.7212
29	20479	10.01	28.7167
29	20714	10.11	28.7121
29	20949	10.21	28.7073
29	21184	10.31	28.7024
29	21419	10.41	28.6975
29	21654	10.51	28.6924
29	21889	10.61	28.6872
29	22124	10.71	28.6819
29	22359	10.81	28.6766
29	22594	10.91	28.6712
29	22834	11.01	28.6656
29	23069	11.11	28.6601
29	23304	11.21	28.6544
29	23539	11.31	28.6487
29	23774	11.41	28.6429
29	24009	11.51	28.637
29	24244	11.61	28.6311
29	24479	11.71	28.6252
29	24714	11.81	28.6192
29	24949	11.91	28.6132
29	25189	12.01	28.6071
29	25424	12.11	28.601
29	25659	12.21	28.5948
30	231	1.11	10.9402
30	391	1.21	13.7182
30	551	1.31	16.4965
30	711	1.41	19.2756
30	872	1.51	22.0559
30	1032	1.61	24.8379
30	1192	1.71	27.6221
30	1353	1.81	30.4085
30	1513	1.91	33.1975
30	1680	2.01	35.9891
30	1873	2.11	38.7836
30	2108	2.21	41.5811
30	2343	2.31	44.3814
30	2578	2.41	47.1848
30	2813	2.51	49.9911
30	3049	2.61	52.8005
30	3284	2.71	55.6128
30	3519	2.81	58.428
30	3754	2.91	61.2461
30	3994	3.01	64.067
30	4229	3.11	66.8907
30	4464	3.21	69.717
30	4699	3.31	72.546
30	4934	3.41	75.3776
30	5169	3.51	78.2116
30	5404	3.61	81.048
30	5639	3.71	83.8867
30	5874	3.81	86.7277
30	6109	3.91	89.5708
30	6349	4.01	92.416
30	6584	4.11	95.2632
30	6819	4.21	98.1124
30	7054	4.31	100.963
30	7289	4.41	103.816
30	7524	4.51	106.671
30	7759	4.61	109.527
30	7994	4.71	112.384
30	8229	4.81	115.243
30	8464	4.91	118.104
30	8704	5.01	120.966
30	8939	5.11	123.829
30	9174	5.21	126.693
30	9409	5.31	129.559
30	9644	5.41	132.425
30	9879	5.51	135.293
30	10114	5.61	138.161
30	10349	5.71	141.031
30	10584	5.81	143.901
30	10819	5.91	146.772
30	11059	6.01	149.644
30	11294	6.11	152.516
30	11529	6.21	155.389
30	11764	6.31	158.263
30	11999	6.41	161.137
30	12234	6.51	164.012
30	12469	6.61	166.887
30	12704	6.71	169.763
30	12939	6.81	172.639
30	13174	6.91	175.515
30	13414	7.01	178.392
30	13649	7.11	181.269
30	13884	7.21	184.146
30	14119	7.31	187.023
30	14354	7.41	189.9
30	14589	7.51	192.778
30	14824	7.61	195.656
30	15059	7.71	198.533
30	15294	7.81	201.411
30	15529	7.91	204.288
30	15769	8.01	207.166
30	16004	8.11	210.043
30	16239	8.21	212.921
30	16474	8.31	215.798
30	16709	8.41	218.675
30	16944	8.51	221.552
30	17179	8.61	224.428
30	17414	8.71	227.305
30	17649	8.81	230.181
30	17884	8.91	233.057
30	18124	9.01	235.933
30	18359	9.11	238.808
30	18594	9.21	241.683
30	18829	9.31	244.558
30	19064	9.41	247.432
30	19299	9.51	250.306
30	19534	9.61	253.18
30	19769	9.71	256.053
30	20004	9.81	258.926
30	20239	9.91	261.798
30	20479	10.01	264.67
30	20714	10.11	267.541
30	20949	10.21	270.412
30	21184	10.31	273.283
30	21419	10.41	276.153
[...]
43	20844	10.154672492542	3
43	21079	10.254661861822	3
43	21314	10.354664226871	3
43	21549	10.454666587714	3
43	21784	10.554668944375	3
43	22019	10.65467129688	3
43	22254	10.754660645258	3
43	22489	10.854662989536	3
43	22724	10.954665329741	3
43	22964	11.054667665903	3
43	23199	11.154669998054	3
43	23434	11.254672326224	3
43	23669	11.354661650444	3
43	23904	11.454663970752	3
43	24139	11.554666287178	3
43	24374	11.654668599759	3
43	24609	11.754670908531	3
43	24844	11.854673213534	3
43	25085	11.954662514802	3
43	25325	12.054664812379	3
43	25560	12.154667106302	3
44	1636	2	0
44	3942	3	0
44	6297	4	0
44	8652	5	0
44	11007	6	0
44	13362	7	0
44	15717	8	0
44	18072	9	0
44	20427	10	0
44	22782	11	0
44	25137	12	0
45	1636	2	0.017369
45	3942	3	0.024314
45	6297	4	0.02481
45	8652	5	0.02481
45	11007	6	0.02481
45	13362	7	0.02481
45	15717	8	0.02481
45	18072	9	0.02481
45	20427	10	0.02481
45	22782	11	0.02481
45	25137	12	0.02481
46	1636	2	0
46	3942	3	0
46	6297	4	0
46	8652	5	0
46	11007	6	0
46	13362	7	0
46	15717	8	0
46	18072	9	0
46	20427	10	0
46	22782	11	0
46	25137	12	0
47	1637	2	1
47	3943	3	1
47	6298	4	1
47	8653	5	1
47	11008	6	1
47	13363	7	1
47	15718	8	1
47	18073	9	1
47	20428	10	1
47	22783	11	1
47	25138	12	1
48	1637	2	0.017369
48	3943	3	0.024314
48	6298	4	0.02481
48	8653	5	0.02481
48	11008	6	0.02481
48	13363	7	0.02481
48	15718	8	0.02481
48	18073	9	0.02481
48	20428	10	0.02481
48	22783	11	0.02481
48	25138	12	0.02481
49	1637	2	0
49	3943	3	0
49	6298	4	0
49	8653	5	0
49	11008	6	0
49	13363	7	0
49	15718	8	0
49	18073	9	0
49	20428	10	0
49	22783	11	0
49	25138	12	0
50	1638	2	2
50	3944	3	2
50	6299	4	2
50	8654	5	2
50	11009	6	2
50	13364	7	2
50	15719	8	2
50	18074	9	2
50	20429	10	2
50	22784	11	2
50	25139	12	2
51	1638	2	0.017369
51	3944	3	0.024314
51	6299	4	0.02481
51	8654	5	0.02481
51	11009	6	0.02481
51	13364	7	0.02481
51	15719	8	0.02481
51	18074	9	0.02481
51	20429	10	0.02481
51	22784	11	0.02481
51	25139	12	0.02481
52	1638	2	0
52	3944	3	0
52	6299	4	0
52	8654	5	0
52	11009	6	0
52	13364	7	0
52	15719	8	0
52	18074	9	0
52	20429	10	0
52	22784	11	0
52	25139	12	0
53	1639	2	3
53	3945	3	3
53	6300	4	3
53	8655	5	3
53	11010	6	3
53	13365	7	3
53	15720	8	3
53	18075	9	3
53	20430	10	3
53	22785	11	3
53	25140	12	3
54	1639	2	0.017368
54	3945	3	0.024314
54	6300	4	0.02481
54	8655	5	0.02481
54	11010	6	0.02481
54	13365	7	0.02481
54	15720	8	0.02481
54	18075	9	0.02481
54	20430	10	0.02481
54	22785	11	0.02481
54	25140	12	0.02481
55	1639	2	0
55	3945	3	0
55	6300	4	0
55	8655	5	0
55	11010	6	0
55	13365	7	0
55	15720	8	0
55	18075	9	0
55	20430	10	0
55	22785	11	0
55	25140	12	0
56	1874	2.11	-1
56	2109	2.21	-1
56	2344	2.31	-1
56	2579	2.41	-1
56	2814	2.51	-1
56	3050	2.61	-1
56	3285	2.71	-1
56	3520	2.81	-1
56	3755	2.91	-1
56	3995	3.01	-1
56	4230	3.11	-1
56	4465	3.21	-1
56	4700	3.31	-1
56	4935	3.41	-1
56	5170	3.51	-1
56	5405	3.61	-1
56	5640	3.71	-1
56	5875	3.81	-1
56	6110	3.91	-1
56	6350	4.01	-1
56	6585	4.11	-1
56	6820	4.21	-1
56	7055	4.31	-1
56	7290	4.41	-1
56	7525	4.51	-1
56	7760	4.61	-1
56	7995	4.71	-1
56	8230	4.81	-1
56	8465	4.91	-1
56	8705	5.01	-1
56	8940	5.11	-1
56	9175	5.21	-1
56	9410	5.31	-1
56	9645	5.41	-1
56	9880	5.51	-1
56	10115	5.61	-1
56	10350	5.71	-1
56	10585	5.81	-1
56	10820	5.91	-1
56	11060	6.01	-1
56	11295	6.11	-1
56	11530	6.21	-1
56	11765	6.31	-1
56	12000	6.41	-1
56	12235	6.51	-1
56	12470	6.61	-1
56	12705	6.71	-1
56	12940	6.81	-1
56	13175	6.91	-1
56	13415	7.01	-1
56	13650	7.11	-1
56	13885	7.21	-1
56	14120	7.31	-1
56	14355	7.41	-1
56	14590	7.51	-1
56	14825	7.61	-1
56	15060	7.71	-1
56	15295	7.81	-1
56	15530	7.91	-1
56	15770	8.01	-1
56	16005	8.11	-1
56	16240	8.21	-1
56	16475	8.31	-1
56	16710	8.41	-1
56	16945	8.51	-1
56	17180	8.61	-1
56	17415	8.71	-1
56	17650	8.81	-1
56	17885	8.91	-1
56	18125	9.01	-1
56	18360	9.11	-1
56	18595	9.21	-1
56	18830	9.31	-1
56	19065	9.41	-1
56	19300	9.51	-1
56	19535	9.61	-1
56	19770	9.71	-1
56	20005	9.81	-1
56	20240	9.91	-1
56	20480	10.01	-1
56	20715	10.11	-1
56	20950	10.21	-1
56	21185	10.31	-1
56	21420	10.41	-1
56	21655	10.51	-1
56	21890	10.61	-1
56	22125	10.71	-1
56	22360	10.81	-1
56	22595	10.91	-1
56	22835	11.01	-1
56	23070	11.11	-1
56	23305	11.21	-1
56	23540	11.31	-1
56	23775	11.41	-1
56	24010	11.51	-1
56	24245	11.61	-1
56	24480	11.71	-1
56	24715	11.81	-1
56	24950	11.91	-1
56	25190	12.01	-1
56	25425	12.11	-1
56	25660	12.21	-1
57	1874	2.11	0
57	2109	2.21	0
57	2344	2.31	0
57	2579	2.41	0
57	2814	2.51	0
57	3050	2.61	0
57	3285	2.71	0
57	3520	2.81	0
57	3755	2.91	0
57	3995	3.01	0
57	4230	3.11	0
57	4465	3.21	0
57	4700	3.31	0
57	4935	3.41	0
57	5170	3.51	0
57	5405	3.61	0
57	5640	3.71	0
57	5875	3.81	0
57	6110	3.91	0
57	6350	4.01	0
57	6585	4.11	0
57	6820	4.21	0
57	7055	4.31	0
57	7290	4.41	0
57	7525	4.51	0
57	7760	4.61	0
57	7995	4.71	0
57	8230	4.81	0
57	8465	4.91	0
57	8705	5.01	0
57	8940	5.11	0
57	9175	5.21	0
57	9410	5.31	0
57	9645	5.41	0
57	9880	5.51	0
57	10115	5.61	0
57	10350	5.71	0
57	10585	5.81	0
57	10820	5.91	0
57	11060	6.01	0
57	11295	6.11	0
57	11530	6.21	0
57	11765	6.31	0
57	12000	6.41	0
57	12235	6.51	0
57	12470	6.61	0
57	12705	6.71	0
57	12940	6.81	0
57	13175	6.91	0
57	13415	7.01	0
57	13650	7.11	0
57	13885	7.21	0
57	14120	7.31	0
57	14355	7.41	0
57	14590	7.51	0
57	14825	7.61	0
57	15060	7.71	0
57	15295	7.81	0
57	15530	7.91	0
57	15770	8.01	0
57	16005	8.11	0
57	16240	8.21	0
57	16475	8.31	0
57	16710	8.41	0
57	16945	8.51	0
57	17180	8.61	0
57	17415	8.71	0
57	17650	8.81	0
57	17885	8.91	0
57	18125	9.01	0
57	18360	9.11	0
57	18595	9.21	0
57	18830	9.31	0
57	19065	9.41	0
57	19300	9.51	0
57	19535	9.61	0
57	19770	9.71	0
57	20005	9.81	0
57	20240	9.91	0
57	20480	10.01	0
57	20715	10.11	0
57	20950	10.21	0
57	21185	10.31	0
57	21420	10.41	0
57	21655	10.51	0
57	21890	10.61	0
57	22125	10.71	0
57	22360	10.81	0
57	22595	10.91	0
57	22835	11.01	0
57	23070	11.11	0
57	23305	11.21	0
57	23540	11.31	0
57	23775	11.41	0
57	24010	11.51	0
57	24245	11.61	0
57	24480	11.71	0
57	24715	11.81	0
57	24950	11.91	0
57	25190	12.01	0
57	25425	12.11	0
57	25660	12.21	0
58	1874	2.11	4
58	2109	2.21	4
58	2344	2.31	4
58	2579	2.41	4
58	2814	2.51	4
58	3050	2.61	4
58	3285	2.71	4
58	3520	2.81	4
58	3755	2.91	4
58	3995	3.01	4
58	4230	3.11	4
58	4465	3.21	4
58	4700	3.31	4
58	4935	3.41	4
58	5170	3.51	4
58	5405	3.61	4
58	5640	3.71	4
58	5875	3.81	4
58	6110	3.91	4
58	6350	4.01	4
58	6585	4.11	4
58	6820	4.21	4
58	7055	4.31	4
58	7290	4.41	4
58	7525	4.51	4
58	7760	4.61	4
58	7995	4.71	4
58	8230	4.81	4
58	8465	4.91	4
58	8705	5.01	4
58	8940	5.11	4
58	9175	5.21	4
58	9410	5.31	4
58	9645	5.41	4
58	9880	5.51	4
58	10115	5.61	4
58	10350	5.71	4
58	10585	5.81	4
58	10820	5.91	4
58	11060	6.01	4
58	11295	6.11	4
58	11530	6.21	4
58	11765	6.31	4
58	12000	6.41	4
58	12235	6.51	4
58	12470	6.61	4
58	12705	6.71	4
58	12940	6.81	4
58	13175	6.91	4
58	13415	7.01	4
58	13650	7.11	4
58	13885	7.21	4
58	14120	7.31	4
58	14355	7.41	4
58	14590	7.51	4
58	14825	7.61	4
58	15060	7.71	4
58	15295	7.81	4
58	15530	7.91	4
58	15770	8.01	4
58	16005	8.11	4
58	16240	8.21	4
58	16475	8.31	4
58	16710	8.41	4
58	16945	8.51	4
58	17180	8.61	4
58	17415	8.71	4
58	17650	8.81	4
58	17885	8.91	4
58	18125	9.01	4
58	18360	9.11	4
58	18595	9.21	4
58	18830	9.31	4
58	19065	9.41	4
58	19300	9.51	4
58	19535	9.61	4
58	19770	9.71	4
58	20005	9.81	4
58	20240	9.91	4
58	20480	10.01	4
58	20715	10.11	4
58	20950	10.21	4
58	21185	10.31	4
58	21420	10.41	4
58	21655	10.51	4
58	21890	10.61	4
58	22125	10.71	4
58	22360	10.81	4
58	22595	10.91	4
58	22835	11.01	4
58	23070	11.11	4
58	23305	11.21	4
58	23540	11.31	4
58	23775	11.41	4
58	24010	11.51	4
58	24245	11.61	4
58	24480	11.71	4
58	24715	11.81	4
58	24950	11.91	4
58	25190	12.01	4
58	25425	12.11	4
58	25660	12.21	4
59	1874	2.11	-0.000358191
59	2109	2.21	-0.000681704
59	2344	2.31	-0.00093487
59	2579	2.41	-0.00112579
59	2814	2.51	-0.00126221
59	3050	2.61	-0.00135149
59	3285	2.71	-0.00140049
59	3520	2.81	-0.00141557
59	3755	2.91	-0.00140255
59	3995	3.01	-0.00136671
59	4230	3.11	-0.0013128
59	4465	3.21	-0.00124502
59	4700	3.31	-0.0011671
59	4935	3.41	-0.00108223
59	5170	3.51	-0.000993208
59	5405	3.61	-0.000902362
59	5640	3.71	-0.000811651
59	5875	3.81	-0.000722679
59	6110	3.91	-0.000636729
59	6350	4.01	-0.0005548
59	6585	4.11	-0.000477639
59	6820	4.21	-0.000405773
59	7055	4.31	-0.00033954
59	7290	4.41	-0.000279116
59	7525	4.51	-0.000224541
59	7760	4.61	-0.000175743
59	7995	4.71	-0.00013256
59	8230	4.81	-9.47571e-05
59	8465	4.91	-6.2046e-05
59	8705	5.01	-3.40986e-05
59	8940	5.11	-1.05605e-05
59	9175	5.21	8.93844e-06
59	9410	5.31	2.4774e-05
59	9645	5.41	3.73203e-05
59	9880	5.51	4.69433e-05
59	10115	5.61	5.39956e-05
59	10350	5.71	5.88124e-05
59	10585	5.81	6.1709e-05
59	10820	5.91	6.29785e-05
59	11060	6.01	6.28903e-05
59	11295	6.11	6.169e-05
59	11530	6.21	5.95988e-05
59	11765	6.31	5.68144e-05
59	12000	6.41	5.35112e-05
59	12235	6.51	4.98416e-05
59	12470	6.61	4.59373e-05
59	12705	6.71	4.19105e-05
59	12940	6.81	3.78555e-05
59	13175	6.91	3.38499e-05
59	13415	7.01	2.99569e-05
59	13650	7.11	2.62259e-05
59	13885	7.21	2.26948e-05
59	14120	7.31	1.93911e-05
59	14355	7.41	1.6333e-05
59	14590	7.51	1.35314e-05
59	14825	7.61	1.09904e-05
59	15060	7.71	8.70882e-06
59	15295	7.81	6.6809e-06
59	15530	7.91	4.89747e-06
59	15770	8.01	3.3466e-06
59	16005	8.11	2.01432e-06
59	16240	8.21	8.85256e-07
59	16475	8.31	-5.68459e-08
59	16710	8.41	-8.28678e-07
59	16945	8.51	-1.44699e-06
59	17180	8.61	-1.92826e-06
59	17415	8.71	-2.28849e-06
59	17650	8.81	-2.54296e-06
59	17885	8.91	-2.7061e-06
59	18125	9.01	-2.79139e-06
59	18360	9.11	-2.8113e-06
59	18595	9.21	-2.77721e-06
59	18830	9.31	-2.69943e-06
59	19065	9.41	-2.58721e-06
59	19300	9.51	-2.44874e-06
59	19535	9.61	-2.29123e-06
59	19770	9.71	-2.12092e-06
59	20005	9.81	-1.94317e-06
59	20240	9.91	-1.7625e-06
59	20480	10.01	-1.58267e-06
59	20715	10.11	-1.40677e-06
59	20950	10.21	-1.23723e-06
59	21185	10.31	-1.07596e-06
59	21420	10.41	-9.24364e-07
59	21655	10.51	-7.83424e-07
59	21890	10.61	-6.53753e-07
59	22125	10.71	-5.35652e-07
59	22360	10.81	-4.2916e-07
59	22595	10.91	-3.34103e-07
59	22835	11.01	-2.5013e-07
59	23070	11.11	-1.76757e-07
59	23305	11.21	-1.13395e-07
59	23540	11.31	-5.93825e-08
59	23775	11.41	-1.40084e-08
59	24010	11.51	2.34657e-08
59	24245	11.61	5.3787e-08
59	24480	11.71	7.76954e-08
59	24715	11.81	9.59155e-08
59	24950	11.91	1.09142e-07
59	25190	12.01	1.18035e-07
59	25425	12.11	1.23212e-07
59	25660	12.21	1.2525e-07
60	1874	2.11	-0.00218518
60	2109	2.21	-0.00213419
60	2344	2.31	-0.00205408
60	2579	2.41	-0.00195152
60	2814	2.51	-0.00183238
60	3050	2.61	-0.00170178
60	3285	2.71	-0.00156412
60	3520	2.81	-0.00142314
60	3755	2.91	-0.00128196
60	3995	3.01	-0.00114315
60	4230	3.11	-0.00100877
60	4465	3.21	-0.000880447
60	4700	3.31	-0.000759381
60	4935	3.41	-0.000646445
60	5170	3.51	-0.000542204
60	5405	3.61	-0.000446965
60	5640	3.71	-0.000360819
60	5875	3.81	-0.000283678
60	6110	3.91	-0.000215307
60	6350	4.01	-0.000155357
60	6585	4.11	-0.000103391
60	6820	4.21	-5.89069e-05
60	7055	4.31	-2.13575e-05
60	7290	4.41	9.82919e-06
60	7525	4.51	3.52368e-05
60	7760	4.61	5.54479e-05
60	7995	4.71	7.10335e-05
60	8230	4.81	8.25451e-05
60	8465	4.91	9.05081e-05
60	8705	5.01	9.54172e-05
60	8940	5.11	9.7733e-05
60	9175	5.21	9.78798e-05
60	9410	5.31	9.62447e-05
60	9645	5.41	9.31771e-05
60	9880	5.51	8.89894e-05
60	10115	5.61	8.39579e-05
60	10350	5.71	7.83245e-05
60	10585	5.81	7.22983e-05
60	10820	5.91	6.6058e-05
60	11060	6.01	5.9754e-05
60	11295	6.11	5.35107e-05
60	11530	6.21	4.74294e-05
60	11765	6.31	4.15898e-05
60	12000	6.41	3.60534e-05
60	12235	6.51	3.0865e-05
60	12470	6.61	2.60551e-05
60	12705	6.71	2.16419e-05
60	12940	6.81	1.76335e-05
60	13175	6.91	1.40289e-05
60	13415	7.01	1.08202e-05
60	13650	7.11	7.99392e-06
60	13885	7.21	5.532e-06
60	14120	7.31	3.41315e-06
60	14355	7.41	1.61374e-06
60	14590	7.51	1.08654e-07
60	14825	7.61	-1.12799e-06
60	15060	7.71	-2.12224e-06
60	15295	7.81	-2.89981e-06
60	15530	7.91	-3.48567e-06
60	15770	8.01	-3.90376e-06
60	16005	8.11	-4.17673e-06
60	16240	8.21	-4.32574e-06
60	16475	8.31	-4.3704e-06
60	16710	8.41	-4.32865e-06
60	16945	8.51	-4.21676e-06
60	17180	8.61	-4.04934e-06
60	17415	8.71	-3.83937e-06
60	17650	8.81	-3.59826e-06
60	17885	8.91	-3.33592e-06
60	18125	9.01	-3.06089e-06
60	18360	9.11	-2.78036e-06
60	18595	9.21	-2.50036e-06
60	18830	9.31	-2.22582e-06
60	19065	9.41	-1.96068e-06
60	19300	9.51	-1.708e-06
60	19535	9.61	-1.47009e-06
60	19770	9.71	-1.24855e-06
60	20005	9.81	-1.04441e-06
60	20240	9.91	-8.58219e-07
60	20480	10.01	-6.90082e-07
60	20715	10.11	-5.39774e-07
60	20950	10.21	-4.06787e-07
60	21185	10.31	-2.90396e-07
60	21420	10.41	-1.89707e-07
60	21655	10.51	-1.03704e-07
60	21890	10.61	-3.12909e-08
60	22125	10.71	2.86736e-08
60	22360	10.81	7.73515e-08
60	22595	10.91	1.15897e-07
60	22835	11.01	1.45439e-07
60	23070	11.11	1.67065e-07
60	23305	11.21	1.81809e-07
60	23540	11.31	1.90644e-07
60	23775	11.41	1.94472e-07
60	24010	11.51	1.94125e-07
60	24245	11.61	1.90358e-07
60	24480	11.71	1.83853e-07
60	24715	11.81	1.75219e-07
60	24950	11.91	1.64994e-07
60	25190	12.01	1.53647e-07
60	25425	12.11	1.41582e-07
60	25660	12.21	1.29146e-07
61	1874	2.11	27.78
61	2109	2.21	27.7799
61	2344	2.31	27.7798
61	2579	2.41	27.7797
61	2814	2.51	27.7796
61	3050	2.61	27.7795
61	3285	2.71	27.7794
61	3520	2.81	27.7792
61	3755	2.91	27.7791
61	3995	3.01	27.7789
61	4230	3.11	27.7788
61	4465	3.21	27.7787
61	4700	3.31	27.7785
61	4935	3.41	27.7784
61	5170	3.51	27.7783
61	5405	3.61	27.7782
61	5640	3.71	27.7782
61	5875	3.81	27.7781
61	6110	3.91	27.778
61	6350	4.01	27.7779
61	6585	4.11	27.7779
61	6820	4.21	27.7779
61	7055	4.31	27.7778
61	7290	4.41	27.7778
61	7525	4.51	27.7778
61	7760	4.61	27.7777
61	7995	4.71	27.7777
61	8230	4.81	27.7777
61	8465	4.91	27.7777
61	8705	5.01	27.7777
61	8940	5.11	27.7777
61	9175	5.21	27.7777
61	9410	5.31	27.7777
61	9645	5.41	27.7777
61	9880	5.51	27.7777
61	10115	5.61	27.7777
61	10350	5.71	27.7777
61	10585	5.81	27.7777
61	10820	5.91	27.7777
61	11060	6.01	27.7777
61	11295	6.11	27.7777
61	11530	6.21	27.7778
61	11765	6.31	27.7778
61	12000	6.41	27.7778
61	12235	6.51	27.7778
61	12470	6.61	27.7778
61	12705	6.71	27.7778
61	12940	6.81	27.7778
61	13175	6.91	27.7778
61	13415	7.01	27.7778
61	13650	7.11	27.7778
61	13885	7.21	27.7778
61	14120	7.31	27.7778
61	14355	7.41	27.7778
61	14590	7.51	27.7778
61	14825	7.61	27.7778
61	15060	7.71	27.7778
61	15295	7.81	27.7778
61	15530	7.91	27.7778
61	15770	8.01	27.7778
61	16005	8.11	27.7778
61	16240	8.21	27.7778
61	16475	8.31	27.7778
61	16710	8.41	27.7778
61	16945	8.51	27.7778
61	17180	8.61	27.7778
61	17415	8.71	27.7778
61	17650	8.81	27.7778
61	17885	8.91	27.7778
61	18125	9.01	27.7778
61	18360	9.11	27.7778
61	18595	9.21	27.7778
61	18830	9.31	27.7778
61	19065	9.41	27.7778
61	19300	9.51	27.7778
61	19535	9.61	27.7778
61	19770	9.71	27.7778
61	20005	9.81	27.7778
61	20240	9.91	27.7778
61	20480	10.01	27.7778
61	20715	10.11	27.7778
61	20950	10.21	27.7778
61	21185	10.31	27.7778
61	21420	10.41	27.7778
61	21655	10.51	27.7778
61	21890	10.61	27.7778
61	22125	10.71	27.7778
61	22360	10.81	27.7778
61	22595	10.91	27.7778
61	22835	11.01	27.7778
61	23070	11.11	27.7778
61	23305	11.21	27.7778
61	23540	11.31	27.7778
61	23775	11.41	27.7778
61	24010	11.51	27.7778
61	24245	11.61	27.7778
61	24480	11.71	27.7778
61	24715	11.81	27.7778
61	24950	11.91	27.7778
61	25190	12.01	27.7778
61	25425	12.11	27.7778
61	25660	12.21	27.7778
62	1874	2.11	61.369
62	2109	2.21	64.0594
62	2344	2.31	66.7498
62	2579	2.41	69.4402
62	2814	2.51	72.1305
62	3050	2.61	74.8208
62	3285	2.71	77.5112
62	3520	2.81	80.2015
62	3755	2.91	82.8918
62	3995	3.01	85.5821
62	4230	3.11	88.2724
62	4465	3.21	90.9626
62	4700	3.31	93.6529
62	4935	3.41	96.3431
62	5170	3.51	99.0333
62	5405	3.61	101.724
62	5640	3.71	104.414
62	5875	3.81	107.104
62	6110	3.91	109.794
62	6350	4.01	112.484
62	6585	4.11	115.175
62	6820	4.21	117.865
62	7055	4.31	120.555
62	7290	4.41	123.245
62	7525	4.51	125.935
62	7760	4.61	128.625
62	7995	4.71	131.316
62	8230	4.81	134.006
62	8465	4.91	136.696
62	8705	5.01	139.386
62	8940	5.11	142.076
62	9175	5.21	144.766
62	9410	5.31	147.457
62	9645	5.41	150.147
62	9880	5.51	152.837
62	10115	5.61	155.527
62	10350	5.71	158.217
62	10585	5.81	160.907
62	10820	5.91	163.598
62	11060	6.01	166.288
62	11295	6.11	168.978
62	11530	6.21	171.668
62	11765	6.31	174.358
62	12000	6.41	177.048
62	12235	6.51	179.739
62	12470	6.61	182.429
62	12705	6.71	185.119
62	12940	6.81	187.809
62	13175	6.91	190.499
62	13415	7.01	193.189
62	13650	7.11	195.88
62	13885	7.21	198.57
62	14120	7.31	201.26
62	14355	7.41	203.95
62	14590	7.51	206.64
62	14825	7.61	209.33
62	15060	7.71	212.021
62	15295	7.81	214.711
62	15530	7.91	217.401
62	15770	8.01	220.091
62	16005	8.11	222.781
62	16240	8.21	225.471
62	16475	8.31	228.162
62	16710	8.41	230.852
62	16945	8.51	233.542
62	17180	8.61	236.232
62	17415	8.71	238.922
62	17650	8.81	241.612
62	17885	8.91	244.303
62	18125	9.01	246.993
62	18360	9.11	249.683
62	18595	9.21	252.373
62	18830	9.31	255.063
62	19065	9.41	257.753
62	19300	9.51	260.444
62	19535	9.61	263.134
62	19770	9.71	265.824
62	20005	9.81	268.514
62	20240	9.91	271.204
62	20480	10.01	273.895
62	20715	10.11	276.585
62	20950	10.21	279.275
62	21185	10.31	281.965
62	21420	10.41	284.655
62	21655	10.51	287.345
62	21890	10.61	290.036
62	22125	10.71	292.726
62	22360	10.81	295.416
62	22595	10.91	298.106
62	22835	11.01	300.796
62	23070	11.11	303.486
62	23305	11.21	306.177
62	23540	11.31	308.867
62	23775	11.41	311.557
62	24010	11.51	314.247
62	24245	11.61	316.937
62	24480	11.71	319.627
62	24715	11.81	322.318
62	24950	11.91	325.008
62	25190	12.01	327.698
62	25425	12.11	330.388
62	25660	12.21	333.078
63	1874	2.11	-12.0349
63	2109	2.21	-11.3431
63	2344	2.31	-10.6512
63	2579	2.41	-9.95935
63	2814	2.51	-9.2675
63	3050	2.61	-8.57565
63	3285	2.71	-7.8838
63	3520	2.81	-7.19196
63	3755	2.91	-6.50012
63	3995	3.01	-5.80829
63	4230	3.11	-5.11646
63	4465	3.21	-4.42463
63	4700	3.31	-3.7328
63	4935	3.41	-3.04098
63	5170	3.51	-2.34916
63	5405	3.61	-1.65734
63	5640	3.71	-0.965523
63	5875	3.81	-0.27371
63	6110	3.91	0.418102
63	6350	4.01	1.10991
63	6585	4.11	1.80172
63	6820	4.21	2.49353
63	7055	4.31	3.18534
63	7290	4.41	3.87714
63	7525	4.51	4.56895
63	7760	4.61	5.26075
63	7995	4.71	5.95256
63	8230	4.81	6.64436
63	8465	4.91	7.33616
63	8705	5.01	8.02797
63	8940	5.11	8.71977
63	9175	5.21	9.41157
63	9410	5.31	10.1034
63	9645	5.41	10.7952
63	9880	5.51	11.487
63	10115	5.61	12.1788
63	10350	5.71	12.8706
63	10585	5.81	13.5624
63	10820	5.91	14.2542
63	11060	6.01	14.946
63	11295	6.11	15.6378
63	11530	6.21	16.3296
63	11765	6.31	17.0214
63	12000	6.41	17.7132
63	12235	6.51	18.405
63	12470	6.61	19.0968
63	12705	6.71	19.7886
63	12940	6.81	20.4804
63	13175	6.91	21.1723
63	13415	7.01	21.8641
63	13650	7.11	22.5559
63	13885	7.21	23.2477
63	14120	7.31	23.9395
63	14355	7.41	24.6313
63	14590	7.51	25.3231
63	14825	7.61	26.0149
63	15060	7.71	26.7067
63	15295	7.81	27.3985
63	15530	7.91	28.0903
63	15770	8.01	28.7821
63	16005	8.11	29.4739
63	16240	8.21	30.1657
63	16475	8.31	30.8575
63	16710	8.41	31.5493
63	16945	8.51	32.2411
63	17180	8.61	32.933
63	17415	8.71	33.6248
63	17650	8.81	34.3166
63	17885	8.91	35.0084
63	18125	9.01	35.7002
63	18360	9.11	36.392
63	18595	9.21	37.0838
63	18830	9.31	37.7756
63	19065	9.41	38.4674
63	19300	9.51	39.1592
63	19535	9.61	39.851
63	19770	9.71	40.5428
63	20005	9.81	41.2346
63	20240	9.91	41.9264
63	20480	10.01	42.6182
63	20715	10.11	43.31
63	20950	10.21	44.0018
63	21185	10.31	44.6937
63	21420	10.41	45.3855
63	21655	10.51	46.0773
63	21890	10.61	46.7691
63	22125	10.71	47.4609
63	22360	10.81	48.1527
63	22595	10.91	48.8445
63	22835	11.01	49.5363
63	23070	11.11	50.2281
63	23305	11.21	50.9199
63	23540	11.31	51.6117
63	23775	11.41	52.3035
63	24010	11.51	52.9953
63	24245	11.61	53.6871
63	24480	11.71	54.3789
63	24715	11.81	55.0707
63	24950	11.91	55.7626
63	25190	12.01	56.4544
63	25425	12.11	57.1462
63	25660	12.21	57.838
64	3946	3	4
64	6301	4	4
64	8656	5	4
64	11011	6	4
64	13366	7	4
64	15721	8	4
64	18076	9	4
64	20431	10	4
64	22786	11	4
64	25141	12	4
65	3946	3	0.023817
65	6301	4	0.02481
65	8656	5	0.02481
65	11011	6	0.02481
65	13366	7	0.02481
65	15721	8	0.02481
65	18076	9	0.02481
65	20431	10	0.02481
65	22786	11	0.02481
65	25141	12	0.02481
66	3946	3	0
66	6301	4	0
66	8656	5	0
66	11011	6	0
66	13366	7	0
66	15721	8	0
66	18076	9	0
66	20431	10	0
66	22786	11	0
66	25141	12	0
