version 2
run General-0-20180821-15:23:56-15000
attr configname General
attr datetime 20180821-15:23:56
attr experiment General
attr inifile omnetpp.ini
attr iterationvars ""
attr iterationvarsf ""
attr measurement ""
attr network veinsbdi.scenarios.LightJasonScenario
attr processid 15000
attr repetition 0
attr replication #0
attr resultdir results
attr runnumber 0
attr seedset 0
param *.playgroundSizeX 1000m
param *.playgroundSizeY 1000m
param *.playgroundSizeZ 50m
param *.*.updateInterval 0.1s
param *.manager.host "\"localhost\""
param *.manager.port 9999
param *.manager.autoShutdown false
param *.manager.moduleType "\"org.car2x.veins.nodes.Car\""
param *.manager.moduleName "\"node\""
param *.manager.moduleDisplayString "\"\""
param *.manager.launchConfig "xmldoc(\"demo.launchd.xml\")"
param *.manager.configFile "\"demo.sumo.cfg\""
param *.manager.useGui false
param *.connectionManager.pMax 20mW
param *.connectionManager.sat -89dBm
param *.connectionManager.alpha 2.0
param *.connectionManager.carrierFrequency "5.890e9 Hz"
param *.connectionManager.sendDirect true
param *.connectionManager.maxInterfDist 2600m
param *.node[*].nicType "\"Nic80211p\""
param *.**.nic.mac1609_4.txPower 20mW
param *.**.nic.mac1609_4.bitrate 18Mbps
param *.**.nic.phy80211p.sensitivity -89dBm
param *.**.nic.phy80211p.useThermalNoise true
param *.**.nic.phy80211p.thermalNoise -110dBm
param *.**.nic.phy80211p.decider "xmldoc(\"config.xml\")"
param *.**.nic.phy80211p.analogueModels "xmldoc(\"config.xml\")"
param *.**.nic.phy80211p.usePropagationDelay true
param *.node[*].applType "\"veinsbdi.app.veinsappl.AgentAppl\""
param *.node[*].appl.dataPriority 2
param *.node[*].veinsmobilityType "\"org.car2x.veins.modules.mobility.traci.TraCIMobility\""
param *.node[*].veinsmobility.x 0
param *.node[*].veinsmobility.y 0
param *.node[*].veinsmobility.z 0
param **.debug true
param **.coreDebug true

vector 0 LightJasonScenario.node[0].veinsmobility posx ETV
vector 1 LightJasonScenario.node[0].veinsmobility posy ETV
vector 2 LightJasonScenario.node[1].veinsmobility posx ETV
vector 3 LightJasonScenario.node[1].veinsmobility posy ETV
vector 4 LightJasonScenario.node[0].veinsmobility speed ETV
vector 5 LightJasonScenario.node[1].veinsmobility speed ETV
vector 6 LightJasonScenario.node[0].veinsmobility acceleration ETV
vector 7 LightJasonScenario.node[0].veinsmobility co2emission ETV
vector 8 LightJasonScenario.node[1].veinsmobility acceleration ETV
vector 9 LightJasonScenario.node[1].veinsmobility co2emission ETV
0	203	10.1	27.1
0	207	10.2	27.1
0	213	10.3	27.100911073308
0	219	10.4	27.102580128556
0	240	10.5	27.104905698165
0	246	10.6	27.10780862858
0	252	10.7	27.111346500138
0	273	10.8	27.115622730472
0	279	10.9	27.12066348164
0	285	11	27.126652844462
0	291	11.1	27.133356353219
0	297	11.2	27.14050790737
0	303	11.3	27.147666395918
0	309	11.4	27.155237501228
0	330	11.5	27.163303616563
0	336	11.6	27.171232733917
0	342	11.7	27.179709953782
0	363	11.8	27.18826574354
0	369	11.9	27.19729370749
0	375	12	27.20588593871
0	381	12.1	27.215276228363
0	387	12.2	27.224361387139
0	393	12.3	27.233736133856
0	399	12.4	27.242909514444
0	420	12.5	27.252302178811
0	426	12.6	27.261676523877
0	432	12.7	27.270969919966
0	453	12.8	27.280390286368
0	459	12.9	27.290004592928
0	465	13	27.299480976057
0	471	13.1	27.309798497777
0	477	13.2	27.320405618862
0	483	13.3	27.331733241431
0	489	13.4	27.342955486733
0	510	13.5	27.3548529065
0	516	13.6	27.367547499007
0	522	13.7	27.380755880007
0	543	13.8	27.394739748712
0	549	13.9	27.409390135339
0	555	14	27.424460788498
0	561	14.1	27.439177543951
0	567	14.2	27.454219374419
0	573	14.3	27.469341609695
0	579	14.4	27.484110322103
0	600	14.5	27.499730113984
0	606	14.6	27.514895192261
0	612	14.7	27.530080560491
0	633	14.8	27.546009564341
0	639	14.9	27.562401339937
0	645	15	27.578667086323
0	651	15.1	27.59502108671
0	686	15.2	27.611887516256
0	692	15.3	27.629696307663
0	698	15.4	27.64755368799
0	719	15.5	27.664972644414
0	725	15.6	27.682412415359
0	731	15.7	27.699899597988
0	752	15.8	27.716893831269
0	758	15.9	27.734015289052
0	764	16	27.751515193953
0	770	16.1	27.769303052596
0	776	16.2	27.78715564608
0	782	16.3	27.805501228138
0	788	16.4	27.823834681712
0	809	16.5	27.84269233267
0	815	16.6	27.861382465404
0	821	16.7	27.879648241562
0	842	16.8	27.897920227417
0	848	16.9	27.91717185581
0	854	17	27.936489215063
0	860	17.1	27.955796084869
0	866	17.2	27.974645037177
0	872	17.3	27.993176699282
0	878	17.4	28.011943924829
0	899	17.5	28.031627578337
0	905	17.6	28.051634493024
0	911	17.7	28.072611426203
0	932	17.8	28.093925792999
0	938	17.9	28.1147707797
0	944	18	28.136076599697
0	950	18.1	28.15766107939
0	956	18.2	28.179212567303
0	962	18.3	28.200443341377
0	968	18.4	28.221296762241
0	989	18.5	28.242824949906
0	995	18.6	28.264505354272
0	1001	18.7	28.285888104793
0	1022	18.8	28.307507401871
0	1028	18.9	28.328751614515
0	1034	19	28.349614090741
0	1040	19.1	28.371351898237
0	1046	19.2	28.393673127887
0	1052	19.3	28.416980322484
0	1058	19.4	28.440024003963
0	1079	19.5	28.463096924234
0	1085	19.6	28.485907765321
0	1091	19.7	28.509321511162
0	1112	19.8	28.533138525876
0	1118	19.9	28.557126308363
0	1124	20	28.581866680159
0	1130	20.1	28.607052339812
0	1165	20.2	28.63301833682
0	1171	20.3	28.659129906221
0	1177	20.4	28.685185869701
0	1198	20.5	28.711809118533
0	1204	20.6	28.738782435268
0	1210	20.7	28.765621591967
0	1231	20.8	28.792866601248
0	1237	20.9	28.819767552945
0	1243	21	28.846710123022
0	1249	21.1	28.873315361453
0	1255	21.2	28.899900516525
0	1261	21.3	28.926811874998
0	1267	21.4	28.953255377086
0	1288	21.5	28.980524576309
0	1294	21.6	29.007643239978
0	1300	21.7	29.035144173434
0	1321	21.8	29.062631948274
0	1327	21.9	29.090745028702
0	1333	22	29.119388281631
0	1339	22.1	29.147583410233
0	1345	22.2	29.175895841209
0	1351	22.3	29.204218769565
0	1357	22.4	29.232741888542
0	1378	22.5	29.261919207985
0	1384	22.6	29.29150422349
0	1390	22.7	29.321161026154
0	1411	22.8	29.351105527535
0	1417	22.9	29.381344830633
0	1423	23	29.411510021931
0	1429	23.1	29.442243226723
0	1435	23.2	29.473401238177
0	1441	23.3	29.504435494876
0	1447	23.4	29.535152073288
0	1468	23.5	29.566714356661
0	1474	23.6	29.599138079204
0	1480	23.7	29.63203073175
0	1501	23.8	29.665095659913
0	1507	23.9	29.699110150436
0	1513	24	29.73267119831
0	1519	24.1	29.766750750318
0	1525	24.2	29.801498408302
0	1531	24.3	29.837034170432
0	1537	24.4	29.873424042672
0	1558	24.5	29.909337851558
0	1564	24.6	29.945861149052
0	1570	24.7	29.98257891277
0	1591	24.8	30.019624787228
0	1597	24.9	30.057521308058
0	1603	25	30.095889361397
0	1609	25.1	30.134553540979
0	1644	25.2	30.172956010366
0	1650	25.3	30.211001508137
0	1656	25.4	30.249990666831
0	1677	25.5	30.28921735235
0	1683	25.6	30.329193766591
0	1689	25.7	30.369001604306
0	1710	25.8	30.408512042081
0	1716	25.9	30.44840538477
0	1722	26	30.489088768583
0	1728	26.1	30.530722318818
0	1734	26.2	30.571882006617
0	1740	26.3	30.613481758287
0	1746	26.4	30.655451396905
0	1767	26.5	30.698345153355
0	1773	26.6	30.741690665654
0	1779	26.7	30.786011236
0	1800	26.8	30.830985692833
0	1806	26.9	30.875812782119
0	1812	27	30.920223686125
0	1818	27.1	30.964509591258
0	1824	27.2	31.009286390668
0	1830	27.3	31.054328866664
0	1836	27.4	31.099862864986
0	1857	27.5	31.146127627905
0	1863	27.6	31.193135910936
0	1869	27.7	31.240449017502
0	1890	27.8	31.287450264626
0	1896	27.9	31.334035332122
0	1902	28	31.380708020318
0	1908	28.1	31.427485725394
0	1914	28.2	31.474087964098
0	1920	28.3	31.520940163361
0	1926	28.4	31.568716807536
0	1947	28.5	31.616444804595
0	1953	28.6	31.663684207061
0	1959	28.7	31.711522715725
0	1980	28.8	31.759342588462
0	1986	28.9	31.806866039036
0	1992	29	31.854263223239
0	1998	29.1	31.901213672793
0	2004	29.2	31.948332758693
0	2010	29.3	31.996133258841
0	2016	29.4	32.044600094153
0	2037	29.5	32.093738805413
0	2043	29.6	32.143023156376
0	2049	29.7	32.192629343781
0	2070	29.8	32.241780176159
0	2076	29.9	32.290910191496
0	2082	30	32.340912263482
0	2088	30.1	32.391829707967
0	2123	30.2	32.443015395892
0	2129	30.3	32.493879576979
0	2135	30.4	32.544279151481
0	2156	30.5	32.595112098227
0	2162	30.6	32.646675639457
0	2168	30.7	32.699202162594
0	2189	30.8	32.752627811284
0	2195	30.9	32.806034370811
0	2201	31	32.859760385078
0	2207	31.1	32.913681530533
0	2213	31.2	32.967257669052
0	2219	31.3	33.020348299152
0	2225	31.4	33.07411358378
0	2246	31.5	33.127884251104
0	2252	31.6	33.18225993486
0	2258	31.7	33.237604642109
0	2279	31.8	33.29281178138
0	2285	31.9	33.348538894934
0	2291	32	33.404690812651
0	2297	32.1	33.460960254692
0	2303	32.2	33.516983124047
0	2309	32.3	33.573062520628
0	2315	32.4	33.628832941223
0	2336	32.5	33.685193048768
0	2342	32.6	33.741356086067
0	2348	32.7	33.798240669452
0	2369	32.8	33.854696065349
0	2375	32.9	33.911120228837
0	2381	33	33.968221130808
0	2387	33.1	34.024900976888
0	2393	33.2	34.081484539264
0	2399	33.3	34.138687189171
0	2405	33.4	34.196569871117
0	2426	33.5	34.254675251995
0	2432	33.6	34.313742138803
0	2438	33.7	34.373497820493
0	2459	33.8	34.433616473985
0	2465	33.9	34.49417387251
0	2471	34	34.5550359079
0	2477	34.1	34.616481500228
0	2483	34.2	34.678046916038
0	2489	34.3	34.739316548445
0	2495	34.4	34.801409883067
0	2516	34.5	34.863727149022
0	2522	34.6	34.926846312812
0	2528	34.7	34.989890187083
0	2549	34.8	35.053339971798
0	2555	34.9	35.116941624551
0	2561	35	35.181268357545
0	2567	35.1	35.246377818895
0	2602	35.2	35.311755195818
0	2608	35.3	35.377599153639
0	2614	35.4	35.443032463532
0	2635	35.5	35.508317785547
0	2641	35.6	35.573480112125
0	2647	35.7	35.638286859093
0	2668	35.8	35.70396847241
0	2674	35.9	35.769821797019
0	2680	36	35.83579840752
0	2686	36.1	35.901332113445
0	2692	36.2	35.967427598075
0	2698	36.3	36.034161839539
0	2704	36.4	36.101745640085
0	2725	36.5	36.170304796185
0	2731	36.6	36.238469658308
0	2737	36.7	36.306629645617
0	2758	36.8	36.374611903561
0	2764	36.9	36.443171566349
0	2770	37	36.511851613881
0	2776	37.1	36.581435728515
0	2782	37.2	36.651291401759
0	2788	37.3	36.7206808323
0	2794	37.4	36.789755504977
0	2815	37.5	36.85932293922
0	2821	37.6	36.928448018227
0	2827	37.7	36.998225544795
0	2848	37.8	37.067579093131
0	2854	37.9	37.136520574909
0	2860	38	37.205263252811
0	2866	38.1	37.274060258808
0	2872	38.2	37.342545832852
0	2878	38.3	37.411591876469
0	2884	38.4	37.480364504755
0	2905	38.5	37.549210318002
0	2911	38.6	37.619036275965
0	2917	38.7	37.68934138366
0	2938	38.8	37.760424280065
0	2944	38.9	37.83103443239
0	2950	39	37.901927029255
0	2956	39.1	37.973073539069
0	2962	39.2	38.044260840108
0	2968	39.3	38.115895264242
0	2974	39.4	38.188324337965
0	2995	39.5	38.260520235086
0	3001	39.6	38.333431360336
0	3007	39.7	38.406575507112
0	3028	39.8	38.480383178353
0	3034	39.9	38.555044082864
0	3040	40	38.629411700104
0	3046	40.1	38.703319938109
0	3081	40.2	38.776786924132
0	3087	40.3	38.849894076908
0	3093	40.4	38.92284015868
0	3114	40.5	38.996286522717
0	3120	40.6	39.070611234666
0	3126	40.7	39.145325084863
0	3147	40.8	39.220690583847
0	3153	40.9	39.296857351382
0	3159	41	39.373943978151
0	3165	41.1	39.450942213368
0	3171	41.2	39.528923307402
0	3177	41.3	39.606748530313
0	3183	41.4	39.685353333262
0	3204	41.5	39.76483885308
0	3210	41.6	39.845189968349
0	3216	41.7	39.925533011913
0	3237	41.8	40.006508004658
0	3243	41.9	40.087852188211
0	3249	42	40.169360318583
0	3255	42.1	40.250577622199
0	3261	42.2	40.331704359419
0	3267	42.3	40.413425604783
0	3273	42.4	40.495949625954
0	3294	42.5	40.579390585649
0	3300	42.6	40.663379147394
0	3306	42.7	40.747974531916
0	3327	42.8	40.832885705593
0	3333	42.9	40.917771957269
0	3339	43	41.002614770775
0	3345	43.1	41.088032306009
0	3351	43.2	41.173879950815
0	3357	43.3	41.260455869177
0	3363	43.4	41.346848969268
0	3384	43.5	41.434156797249
0	3390	43.6	41.521419129368
0	3396	43.7	41.608513418391
0	3417	43.8	41.695441596078
0	3423	43.9	41.782980639916
0	3429	44	41.870958964044
0	3435	44.1	41.959055888718
0	3441	44.2	42.047743580546
0	3447	44.3	42.136874993174
0	3453	44.4	42.226710824386
0	3474	44.5	42.316856871779
0	3480	44.6	42.407936000727
0	3486	44.7	42.49881543585
0	3507	44.8	42.590579436306
0	3513	44.9	42.682565184042
0	3519	45	42.775090716627
0	3525	45.1	42.867749934788
0	3560	45.2	42.959970002933
0	3566	45.3	43.052221715717
0	3572	45.4	43.145420384846
0	3593	45.5	43.238973450317
0	3599	45.6	43.332761490507
0	3605	45.7	43.426745264448
0	3626	45.8	43.520706949621
0	3632	45.9	43.615252240652
0	3638	46	43.710604240832
0	3644	46.1	43.80636722749
0	3650	46.2	43.901695605557
0	3656	46.3	43.997743287285
0	3662	46.4	44.093434993086
0	3683	46.5	44.189310989957
0	3689	46.6	44.285501619694
0	3695	46.7	44.381369187309
0	3716	46.8	44.47754884899
0	3722	46.9	44.573642259216
0	3728	47	44.670137131452
0	3734	47.1	44.766275937095
0	3740	47.2	44.862379705208
0	3746	47.3	44.958434040238
0	3752	47.4	45.05499679467
0	3773	47.5	45.151424381134
0	3779	47.6	45.247897876012
0	3785	47.7	45.34501134048
0	3806	47.8	45.442883996715
0	3812	47.9	45.540562065737
0	3818	48	45.637801384855
0	3824	48.1	45.735353495735
0	3830	48.2	45.833019130371
0	3836	48.3	45.930398181042
0	3842	48.4	46.028091396531
0	3863	48.5	46.125356800308
0	3869	48.6	46.22275857735
0	3875	48.7	46.319929203712
0	3896	48.8	46.416736564506
0	3902	48.9	46.513320639564
0	3908	49	46.610665592926
0	3914	49.1	46.708067198628
0	3920	49.2	46.805871152943
0	3926	49.3	46.904581037833
0	3932	49.4	47.003654874346
0	3953	49.5	47.10334068476
0	3959	49.6	47.202752937716
0	3965	49.7	47.303115233732
0	3986	49.8	47.403039055667
0	3992	49.9	47.500962877601
0	3998	50	47.596886699535
0	4004	50.1	47.690810521469
0	4039	50.2	47.782734343403
0	4045	50.3	47.872658165337
0	4051	50.4	47.960581987271
0	4072	50.5	48.046505809206
0	4078	50.6	48.13042963114
0	4084	50.7	48.212353453074
0	4105	50.8	48.292277275008
0	4111	50.9	48.370201096942
0	4117	51	48.446124918876
0	4123	51.1	48.52004874081
0	4129	51.2	48.591972562744
0	4135	51.3	48.661896384679
0	4141	51.4	48.729820206613
0	4162	51.5	48.795744028547
0	4168	51.6	48.859667850481
0	4174	51.7	48.921591672415
0	4195	51.8	48.981515494349
0	4201	51.9	49.039439316283
0	4207	52	49.095363138217
0	4213	52.1	49.149286960152
0	4219	52.2	49.201210782086
0	4225	52.3	49.25113460402
0	4231	52.4	49.299649086511
0	4252	52.5	49.34854998786
0	4258	52.6	49.398206457574
0	4264	52.7	49.447248314942
0	4285	52.8	49.496512856928
0	4291	52.9	49.545028742266
0	4297	53	49.594446671294
0	4303	53.1	49.643271819637
0	4309	53.2	49.692664370224
0	4315	53.3	49.742302242297
0	4321	53.4	49.791308485441
0	4342	53.5	49.840939390666
0	4348	53.6	49.889940601995
0	4354	53.7	49.939164639225
0	4375	53.8	49.988528505745
0	4381	53.9	50.037696474028
0	4387	54	50.087265896748
0	4393	54.1	50.136206034687
0	4399	54.2	50.185523887321
0	4405	54.3	50.234983068982
0	4411	54.4	50.283740083608
0	4432	54.5	50.33210964786
0	4438	54.6	50.381410201145
0	4444	54.7	50.431061260659
0	4465	54.8	50.480538481614
0	4471	54.9	50.529316031892
0	4477	55	50.577615345024
0	4483	55.1	50.625461200601
0	4518	55.2	50.672949633665
0	4524	55.3	50.72099323233
0	4530	55.4	50.768548814128
0	4551	55.5	50.816730265862
0	4557	55.6	50.865752858359
0	4563	55.7	50.914326429446
0	4584	55.8	50.96354987015
0	4590	55.9	51.012515217752
0	4596	56	51.062393030826
0	4602	56.1	51.111296967172
0	4608	56.2	51.159878323196
0	4614	56.3	51.209051023874
0	4620	56.4	51.258482438531
0	4641	56.5	51.307920994256
0	4647	56.6	51.356797811877
0	4653	56.7	51.406317918636
0	4674	56.8	51.456060138987
0	4680	56.9	51.505386201515
0	4686	57	51.554929498908
0	4692	57.1	51.603670715227
0	4698	57.2	51.65305531881
0	4704	57.3	51.702301734626
0	4710	57.4	51.750887859222
0	4731	57.5	51.799522987275
0	4737	57.6	51.84785718122
0	4743	57.7	51.895781060624
0	4764	57.8	51.943578792733
0	4770	57.9	51.991327162249
0	4776	58	52.038623583409
0	4782	58.1	52.085428403387
0	4788	58.2	52.132555490842
0	4794	58.3	52.180576273628
0	4800	58.4	52.229157865367
0	4821	58.5	52.278510925052
0	4827	58.6	52.327884695495
0	4833	58.7	52.377687761499
0	4854	58.8	52.426781584791
0	4860	58.9	52.476207372703
0	4866	59	52.524864293876
0	4872	59.1	52.57306952304
0	4878	59.2	52.621454424859
0	4884	59.3	52.670427091322
0	4890	59.4	52.719511412159
0	4911	59.5	52.768166270424
0	4917	59.6	52.817211028676
0	4923	59.7	52.866382911271
0	4944	59.8	52.915975432116
0	4950	59.9	52.965292265897
0	4956	60	53.014689695583
0	4962	60.1	53.064317075393
0	4997	60.2	53.113558275816
0	5003	60.3	53.163092704578
0	5009	60.4	53.212533152283
0	5030	60.5	53.261745696611
0	5036	60.6	53.310619804083
0	5042	60.7	53.359993650353
0	5063	60.8	53.408607412206
0	5069	60.9	53.456927696237
0	5075	61	53.506174944833
0	5081	61.1	53.555794481049
0	5087	61.2	53.605125277788
0	5093	61.3	53.65496833596
0	5099	61.4	53.704445621976
0	5120	61.5	53.753335475684
0	5126	61.6	53.80220455767
0	5132	61.7	53.851140063022
0	5153	61.8	53.900009775776
0	5159	61.9	53.949572103007
0	5165	62	53.999059555837
0	5171	62.1	54.048045192119
0	5177	62.2	54.096711976256
0	5183	62.3	54.145563243312
0	5189	62.4	54.194990460897
0	5210	62.5	54.244945108007
0	5216	62.6	54.293879602764
0	5222	62.7	54.343802271368
0	5243	62.8	54.393243252757
0	5249	62.9	54.442447446935
0	5255	63	54.491064279739
0	5261	63.1	54.540546870728
0	5267	63.2	54.589937957244
0	5273	63.3	54.639901487446
0	5279	63.4	54.689387570973
0	5300	63.5	54.738454224381
0	5306	63.6	54.788035622465
0	5312	63.7	54.837720997538
0	5333	63.8	54.887547442684
0	5339	63.9	54.936681732314
0	5345	64	54.985638827305
0	5351	64.1	55.034587986588
0	5357	64.2	55.083113854335
0	5363	64.3	55.132635667261
0	5369	64.4	55.181664872283
0	5390	64.5	55.230764283933
0	5396	64.6	55.279881174518
0	5402	64.7	55.328437019047
0	5423	64.8	55.377967556062
0	5429	64.9	55.426922832419
0	5435	65	55.475657590803
0	5441	65.1	55.5246276384
0	5476	65.2	55.574096738687
0	5482	65.3	55.622910478442
0	5488	65.4	55.67257835381
0	5509	65.5	55.721915300365
0	5515	65.6	55.771135371798
0	5521	65.7	55.820094437183
0	5542	65.8	55.869917173973
0	5548	65.9	55.919575534724
0	5554	66	55.968960082384
0	5560	66.1	56.018025140375
0	5566	66.2	56.066694699204
0	5572	66.3	56.115436018777
0	5578	66.4	56.164977146147
0	5599	66.5	56.213506275947
0	5605	66.6	56.261727727141
0	5611	66.7	56.310195097191
0	5632	66.8	56.35827894527
0	5638	66.9	56.406550722158
0	5644	67	56.454437539951
0	5650	67.1	56.50207951169
0	5656	67.2	56.549269053806
0	5662	67.3	56.596078921705
0	5668	67.4	56.643834738871
0	5689	67.5	56.692328398026
0	5695	67.6	56.741238355163
0	5701	67.7	56.789720098251
0	5722	67.8	56.838751797965
0	5728	67.9	56.888511096501
0	5734	68	56.937181639503
0	5740	68.1	56.986182590884
0	5746	68.2	57.034820777498
0	5752	68.3	57.084218618403
0	5758	68.4	57.13322694213
0	5779	68.5	57.182566546505
0	5785	68.6	57.232451816348
0	5791	68.7	57.281407121631
0	5812	68.8	57.330991328784
0	5818	68.9	57.3809319055
0	5824	69	57.430841989052
0	5830	69.1	57.480750371244
0	5836	69.2	57.529388771807
0	5842	69.3	57.57791734649
0	5848	69.4	57.626098827631
0	5869	69.5	57.674271435312
0	5875	69.6	57.722650633101
0	5881	69.7	57.771573161341
0	5902	69.8	57.819998746203
0	5908	69.9	57.868881047478
0	5914	70	57.918057375331
0	5920	70.1	57.967490007566
0	5955	70.2	58.016020717176
0	5961	70.3	58.065289439207
0	5967	70.4	58.114797457208
0	5988	70.5	58.163776934202
0	5994	70.6	58.213661599772
0	6000	70.7	58.262750725706
0	6021	70.8	58.312034255948
0	6027	70.9	58.36160825598
0	6033	71	58.411250636067
0	6039	71.1	58.460478866953
0	6045	71.2	58.509926975583
0	6051	71.3	58.559242195745
0	6057	71.4	58.608735979676
0	6078	71.5	58.657280239132
0	6084	71.6	58.706624339442
0	6090	71.7	58.756479133513
0	6111	71.8	58.805964045924
0	6117	71.9	58.855077505579
0	6123	72	58.904088740865
0	6129	72.1	58.953492855735
0	6135	72.2	59.001993938753
0	6141	72.3	59.050967182274
0	6147	72.4	59.099858315802
0	6168	72.5	59.148793075286
0	6174	72.6	59.197508253977
0	6180	72.7	59.245759094177
0	6201	72.8	59.293675243895
0	6207	72.9	59.341444550647
0	6213	73	59.389166484677
0	6219	73.1	59.437385171444
0	6225	73.2	59.486382329844
0	6231	73.3	59.536285534235
0	6237	73.4	59.585922681677
0	6258	73.5	59.635274259453
0	6264	73.6	59.684491265048
0	6270	73.7	59.733331639717
0	6291	73.8	59.781733903
0	6297	73.9	59.830960185558
0	6303	74	59.880799679351
0	6309	74.1	59.929915137276
0	6315	74.2	59.978797040168
0	6321	74.3	60.027406717484
0	6327	74.4	60.075612646681
0	6348	74.5	60.123343436525
0	6354	74.6	60.171474523832
0	6360	74.7	60.22003510836
0	6381	74.8	60.26937397988
0	6387	74.9	60.318346578221
0	6393	75	60.367334033632
0	6399	75.1	60.416028395148
0	6434	75.2	60.465576869665
0	6440	75.3	60.514830204309
0	6446	75.4	60.563958581417
0	6467	75.5	60.613596245857
0	6473	75.6	60.663342707753
0	6479	75.7	60.712053336501
0	6500	75.8	60.761676162866
0	6506	75.9	60.810970231514
0	6512	76	60.860796480509
0	6518	76.1	60.910110892372
0	6524	76.2	60.958640948892
0	6530	76.3	61.00753544588
0	6536	76.4	61.05614425549
0	6557	76.5	61.10557709175
0	6563	76.6	61.155170213635
0	6569	76.7	61.204564524519
0	6590	76.8	61.253964806306
0	6596	76.9	61.302957731081
0	6602	77	61.352433578672
0	6608	77.1	61.401362928367
0	6614	77.2	61.450333497709
0	6620	77.3	61.499705325332
0	6626	77.4	61.549057685144
0	6647	77.5	61.598135893601
0	6653	77.6	61.648030830318
0	6659	77.7	61.696797220215
0	6680	77.8	61.745583478378
0	6686	77.9	61.794280222847
0	6692	78	61.843171582814
0	6698	78.1	61.892897227114
0	6704	78.2	61.942289673699
0	6710	78.3	61.991681613321
0	6716	78.4	62.041200048836
0	6737	78.5	62.091155123354
0	6743	78.6	62.140049241989
0	6749	78.7	62.189778683934
0	6770	78.8	62.238869221733
0	6776	78.9	62.287814395494
0	6782	79	62.336807389765
0	6788	79.1	62.385361670661
0	6794	79.2	62.434761004325
0	6800	79.3	62.48346025359
0	6806	79.4	62.533115717493
0	6827	79.5	62.582313342211
0	6833	79.6	62.631706976789
0	6839	79.7	62.680920701006
0	6860	79.8	62.730373051193
0	6866	79.9	62.780087200816
0	6872	80	62.830058516469
0	6878	80.1	62.879281291756
0	6913	80.2	62.928017126463
0	6919	80.3	62.977193137236
0	6925	80.4	63.02685884151
0	6946	80.5	63.076738043506
0	6952	80.6	63.126610077115
0	6958	80.7	63.176277982445
0	6979	80.8	63.226127961351
0	6985	80.9	63.275730401801
0	6991	81	63.32563117761
0	6997	81.1	63.375532770306
0	7003	81.2	63.424248356031
0	7009	81.3	63.473720761355
0	7015	81.4	63.522881237757
0	7036	81.5	63.571721054442
0	7042	81.6	63.62087625679
0	7048	81.7	63.670646203469
0	7069	81.8	63.720346809261
0	7075	81.9	63.769697332952
0	7081	82	63.818904981815
0	7087	82.1	63.868380821371
0	7093	82.2	63.917208601971
0	7099	82.3	63.965909850097
0	7105	82.4	64.014220280507
0	7126	82.5	64.063487282089
0	7132	82.6	64.112143745148
0	7138	82.7	64.161211355034
0	7159	82.8	64.209893796295
0	7165	82.9	64.258540060391
0	7171	83	64.306705301352
0	7177	83.1	64.354731618642
0	7183	83.2	64.403211118987
0	7189	83.3	64.45193902458
0	7195	83.4	64.501102346443
0	7216	83.5	64.550554978691
0	7222	83.6	64.600163621941
0	7228	83.7	64.649419666495
0	7249	83.8	64.698397056577
0	7255	83.9	64.747958436253
0	7261	84	64.797171866544
0	7267	84.1	64.846995796099
0	7273	84.2	64.89675602817
0	7279	84.3	64.946685818639
0	7285	84.4	64.995229721478
0	7306	84.5	65.044767833788
0	7312	84.6	65.094499963838
0	7318	84.7	65.143580663703
0	7339	84.8	65.193458609307
0	7345	84.9	65.242135764556
0	7351	85	65.290733489574
0	7357	85.1	65.338881629638
0	7392	85.2	65.387268316384
0	7398	85.3	65.436204397612
0	7404	85.4	65.485316227978
0	7425	85.5	65.533919999898
0	7431	85.6	65.582742629667
0	7437	85.7	65.632164448887
0	7458	85.8	65.680848350694
0	7464	85.9	65.729974374374
0	7470	86	65.779972299342
0	7476	86.1	65.829600771815
0	7482	86.2	65.879123421553
0	7488	86.3	65.92783525535
0	7494	86.4	65.976859334394
0	7515	86.5	66.026192453466
0	7521	86.6	66.075688300063
0	7527	86.7	66.124367282882
0	7548	86.8	66.172628725537
0	7554	86.9	66.220402332699
0	7560	87	66.26861082796
0	7566	87.1	66.316370102049
0	7572	87.2	66.363941556789
0	7578	87.3	66.41149947781
0	7584	87.4	66.459690064612
0	7605	87.5	66.508555965523
0	7611	87.6	66.558172794702
0	7617	87.7	66.606788659789
0	7638	87.8	66.655963409883
0	7644	87.9	66.70528376851
0	7650	88	66.754542831761
0	7656	88.1	66.80337557437
0	7662	88.2	66.851941964536
0	7668	88.3	66.90129974566
0	7674	88.4	66.950659389121
0	7695	88.5	66.999395106783
0	7701	88.6	67.047903774487
0	7707	88.7	67.09725882156
0	7728	88.8	67.147024246542
0	7734	88.9	67.196567948504
0	7740	89	67.246454909898
0	7746	89.1	67.295817915389
0	7752	89.2	67.34565648883
0	7758	89.3	67.394804162443
0	7764	89.4	67.444434327036
0	7785	89.5	67.493539677438
0	7791	89.6	67.543363388972
0	7797	89.7	67.591899563166
0	7818	89.8	67.640036895552
0	7824	89.9	67.688586532529
0	7830	90	67.737772901621
0	7836	90.1	67.787397304297
0	7871	90.2	67.836672213986
0	7877	90.3	67.886612224778
0	7883	90.4	67.935652667127
0	7904	90.5	67.985040212764
0	7910	90.6	68.034474102904
0	7916	90.7	68.083260055448
0	7937	90.8	68.131982454804
0	7943	90.9	68.180273353441
0	7949	91	68.229036347721
0	7955	91.1	68.27745302786
0	7961	91.2	68.325714757219
0	7967	91.3	68.374440349606
0	7973	91.4	68.423233443834
0	7994	91.5	68.472593683125
0	8000	91.6	68.521282083246
0	8006	91.7	68.570801842384
0	8027	91.8	68.620483190844
0	8033	91.9	68.670208640904
0	8039	92	68.719604101899
0	8045	92.1	68.76848625246
0	8051	92.2	68.817578041851
0	8057	92.3	68.866846527357
0	8063	92.4	68.916845708401
0	8084	92.5	68.966207605805
0	8090	92.6	69.016112275135
0	8096	92.7	69.065799895251
0	8117	92.8	69.114401304338
0	8123	92.9	69.163679616115
0	8129	93	69.212392109661
0	8135	93.1	69.260900263147
0	8141	93.2	69.310169697275
0	8147	93.3	69.359261129343
0	8153	93.4	69.40908763654
0	8174	93.5	69.457995804305
0	8180	93.6	69.50694777865
0	8186	93.7	69.555681845152
0	8207	93.8	69.60469683482
0	8213	93.9	69.653324540182
0	8219	94	69.702878222126
0	8225	94.1	69.752438889278
0	8231	94.2	69.801366310381
0	8237	94.3	69.850666567669
0	8243	94.4	69.900407140646
0	8264	94.5	69.950246324529
0	8270	94.6	69.999020315857
0	8276	94.7	70.048084592719
0	8297	94.8	70.096761167216
0	8303	94.9	70.145337808012
0	8309	95	70.1942998595
0	8315	95.1	70.243701644475
0	8350	95.2	70.292928186953
0	8356	95.3	70.341594597032
0	8362	95.4	70.390155089245
0	8383	95.5	70.439707852012
0	8389	95.6	70.488666615241
0	8395	95.7	70.537246117354
0	8416	95.8	70.585759935835
0	8422	95.9	70.635008245653
0	8428	96	70.684282968457
0	8434	96.1	70.734072494422
0	8440	96.2	70.783534001505
0	8446	96.3	70.832128325935
0	8452	96.4	70.880337692409
0	8473	96.5	70.929122803606
0	8479	96.6	70.97839846823
0	8485	96.7	71.027498148931
0	8506	96.8	71.076053352988
0	8512	96.9	71.125386855042
0	8518	97	71.175001480069
0	8524	97.1	71.223691144825
0	8530	97.2	71.272642971233
0	8536	97.3	71.321246356
0	8542	97.4	71.370571463929
0	8563	97.5	71.419772461054
0	8569	97.6	71.469283056609
0	8575	97.7	71.518808242762
0	8596	97.8	71.568137927324
0	8602	97.9	71.617488311147
0	8608	98	71.666952290826
0	8614	98.1	71.715579834679
0	8620	98.2	71.76410976225
0	8626	98.3	71.812548369327
0	8632	98.4	71.861552106231
0	8653	98.5	71.910685542099
0	8659	98.6	71.95951677295
0	8665	98.7	72.008154618253
0	8686	98.8	72.057275667862
0	8692	98.9	72.106119358729
0	8698	99	72.15485920875
0	8704	99.1	72.20438679905
0	8710	99.2	72.253087880846
0	8716	99.3	72.302126980436
0	8722	99.4	72.351397364759
0	8743	99.5	72.400724810993
0	8749	99.6	72.449873041986
0	8755	99.7	72.498941288109
0	8776	99.8	72.548194018762
0	8782	99.9	72.596893835957
0	8788	100	72.64565205102
0	8794	100.1	72.694808124154
0	8829	100.2	72.744183086523
0	8835	100.3	72.792966828604
0	8841	100.4	72.842228282771
0	8862	100.5	72.89191110058
0	8868	100.6	72.941822025803
0	8874	100.7	72.990507985529
0	8895	100.8	73.038816125583
0	8901	100.9	73.087944085373
0	8907	101	73.137442374765
0	8913	101.1	73.18717931666
0	8919	101.2	73.237005468952
0	8925	101.3	73.285655668844
0	8931	101.4	73.335220552842
0	8952	101.5	73.38374982434
0	8958	101.6	73.433134419545
0	8964	101.7	73.481839213576
0	8985	101.8	73.530694248448
0	8991	101.9	73.579997407084
0	8997	102	73.629483893528
0	9003	102.1	73.678347847317
0	9009	102.2	73.727739941166
0	9015	102.3	73.776753962793
0	9021	102.4	73.825977973667
0	9042	102.5	73.875250525189
0	9048	102.6	73.923898781927
0	9054	102.7	73.972715071081
0	9075	102.8	74.021291067831
0	9081	102.9	74.06977870428
0	9087	103	74.119208504866
0	9093	103.1	74.168048839785
0	9099	103.2	74.217563869324
0	9105	103.3	74.266209144856
0	9111	103.4	74.315790034099
0	9132	103.5	74.365290426055
0	9138	103.6	74.415140826636
0	9144	103.7	74.464427442963
0	9165	103.8	74.513197409302
0	9171	103.9	74.562520094607
0	9177	104	74.612293692262
0	9183	104.1	74.661798291701
0	9189	104.2	74.710577471494
0	9195	104.3	74.760146075359
0	9201	104.4	74.809805031682
0	9222	104.5	74.859701753737
0	9228	104.6	74.908643188676
0	9234	104.7	74.957991773755
0	9255	104.8	75.007525513787
0	9261	104.9	75.0564475742
0	9267	105	75.105865668296
0	9273	105.1	75.154774011394
0	9308	105.2	75.203459555406
0	9314	105.3	75.252818605155
0	9320	105.4	75.301357877112
0	9341	105.5	75.350653612152
0	9347	105.6	75.400217350794
0	9353	105.7	75.449947657862
0	9374	105.8	75.499429399373
0	9380	105.9	75.548709308045
0	9386	106	75.597926044244
0	9392	106.1	75.646645635184
0	9398	106.2	75.695031054262
0	9404	106.3	75.744086317548
0	9410	106.4	75.793151976503
0	9431	106.5	75.842984732416
0	9437	106.6	75.892296277635
0	9443	106.7	75.941812777326
0	9464	106.8	75.991338026211
0	9470	106.9	76.040614149853
0	9476	107	76.089519408391
0	9482	107.1	76.139320892939
0	9488	107.2	76.188002132936
0	9494	107.3	76.236581152267
0	9500	107.4	76.285895422525
0	9521	107.5	76.33448668116
0	9527	107.6	76.383318471458
0	9533	107.7	76.431650548893
0	9554	107.8	76.480686737119
0	9560	107.9	76.529884374819
0	9566	108	76.579449002755
0	9572	108.1	76.62899274242
0	9578	108.2	76.678106144349
0	9584	108.3	76.726723565745
0	9590	108.4	76.775133091358
0	9611	108.5	76.823456704875
0	9617	108.6	76.87194155772
0	9623	108.7	76.920042962807
0	9644	108.8	76.968405825778
0	9650	108.9	77.016457940483
0	9656	109	77.064259082716
0	9662	109.1	77.112739471928
0	9668	109.2	77.161063022944
0	9674	109.3	77.210368317216
0	9680	109.4	77.25988407291
0	9701	109.5	77.309539721749
0	9707	109.6	77.358779427315
0	9713	109.7	77.407674147571
0	9734	109.8	77.457422353273
0	9740	109.9	77.506649969964
0	9746	110	77.555242351927
0	9752	110.1	77.604491764065
0	9787	110.2	77.653476052349
0	9793	110.3	77.702571020231
0	9799	110.4	77.75255592469
0	9820	110.5	77.801842185403
0	9826	110.6	77.850779029821
0	9832	110.7	77.900649911091
0	9853	110.8	77.949330628862
0	9859	110.9	77.998231224502
0	9865	111	78.048085828568
0	9871	111.1	78.097749208142
0	9877	111.2	78.146318694591
0	9883	111.3	78.195014701439
0	9889	111.4	78.244549499437
0	9910	111.5	78.294118182684
0	9916	111.6	78.343433127243
0	9922	111.7	78.393401702145
0	9943	111.8	78.442784278867
0	9949	111.9	78.492050090918
0	9955	112	78.541684574106
0	9961	112.1	78.590801615607
0	9967	112.2	78.639671755427
0	9973	112.3	78.689188143911
0	9979	112.4	78.73825739407
0	10000	112.5	78.787297960699
0	10006	112.6	78.835875150247
0	10012	112.7	78.884284925546
0	10033	112.8	78.932422182947
0	10039	112.9	78.980823810495
0	10045	113	79.029947415158
0	10051	113.1	79.078453692217
0	10057	113.2	79.127765935628
0	10063	113.3	79.177058749648
0	10069	113.4	79.226956609995
0	10090	113.5	79.275540833716
0	10096	113.6	79.323677670018
0	10102	113.7	79.371735422733
0	10123	113.8	79.420268186176
0	10129	113.9	79.469419376027
0	10135	114	79.51902142104
0	10141	114.1	79.568830480009
0	10147	114.2	79.618041766571
0	10153	114.3	79.667829040658
0	10159	114.4	79.717353944662
0	10180	114.5	79.766413884946
0	10186	114.6	79.815322569525
0	10192	114.7	79.865194845041
0	10213	114.8	79.914549671061
0	10219	114.9	79.963571484166
0	10225	115	80.012291615197
0	10231	115.1	80.061298759056
0	10266	115.2	80.109844950241
0	10272	115.3	80.158992692594
0	10278	115.4	80.208972429539
0	10299	115.5	80.258246800242
0	10305	115.6	80.307862629548
0	10311	115.7	80.356627053036
0	10332	115.8	80.406042317515
0	10338	115.9	80.455576373687
0	10344	116	80.504389532541
0	10350	116.1	80.553129976518
0	10356	116.2	80.602033343634
0	10362	116.3	80.65087928866
0	10368	116.4	80.700097278394
0	10389	116.5	80.750089313319
0	10395	116.6	80.800072280632
0	10401	116.7	80.84930544795
0	10422	116.8	80.899180511475
0	10428	116.9	80.949103898257
0	10434	117	80.997655623301
0	10440	117.1	81.045918844383
0	10446	117.2	81.094954024618
0	10452	117.3	81.144953028295
0	10458	117.4	81.193540526601
0	10479	117.5	81.242710536955
0	10485	117.6	81.292431690558
0	10491	117.7	81.341394428391
0	10512	117.8	81.391193810612
0	10518	117.9	81.440796836221
0	10524	118	81.489334194206
0	10530	118.1	81.537912358032
0	10536	118.2	81.586709505167
0	10542	118.3	81.635909774377
0	10548	118.4	81.684748022939
0	10569	118.5	81.734374835282
0	10575	118.6	81.782923828586
0	10581	118.7	81.831181137378
0	10602	118.8	81.879511960705
0	10608	118.9	81.92877842474
0	10614	119	81.977727141277
0	10620	119.1	82.026305931296
0	10626	119.2	82.075097855714
0	10632	119.3	82.1243584429
0	10638	119.4	82.174178026882
0	10659	119.5	82.223045675217
0	10665	119.6	82.271585790772
0	10671	119.7	82.320975528704
0	10692	119.8	82.369837051871
0	10698	119.9	82.419672984309
0	10704	120	82.468222401933
0	10710	120.1	82.516849232521
0	10745	120.2	82.565647404521
0	10751	120.3	82.615001651766
0	10757	120.4	82.663607714257
0	10778	120.5	82.712814918302
0	10784	120.6	82.761572698389
0	10790	120.7	82.809852815459
0	10811	120.8	82.857957837569
0	10817	120.9	82.906284374807
0	10823	121	82.955511800651
0	10829	121.1	83.004803179968
0	10835	121.2	83.054145796047
0	10841	121.3	83.103841601993
0	10847	121.4	83.15320622053
0	10868	121.5	83.202669583701
0	10874	121.6	83.252424057317
0	10880	121.7	83.301761996108
0	10901	121.8	83.351367796173
0	10907	121.9	83.400584702551
0	10913	122	83.450531962459
0	10919	122.1	83.499172615325
0	10925	122.2	83.547588721728
0	10931	122.3	83.596175956138
0	10937	122.4	83.644485477671
0	10958	122.5	83.692351406597
0	10964	122.6	83.741051552076
0	10970	122.7	83.789805449841
0	10991	122.8	83.8380623566
0	10997	122.9	83.885837429605
0	11003	123	83.933707518117
0	11009	123.1	83.982385575321
0	11015	123.2	84.03118884328
0	11021	123.3	84.080989014292
0	11027	123.4	84.130690647284
0	11048	123.5	84.179256462546
0	11054	123.6	84.228326616952
0	11060	123.7	84.277369031791
0	11081	123.8	84.326947742552
0	11087	123.9	84.375526009723
0	11093	124	84.424011438794
0	11099	124.1	84.473002391129
0	11105	124.2	84.521805701331
0	11111	124.3	84.571446763247
0	11117	124.4	84.620858284842
0	11138	124.5	84.670526457646
0	11144	124.6	84.719500867977
0	11150	124.7	84.769321608884
0	11171	124.8	84.818726070129
0	11177	124.9	84.868311095533
0	11183	125	84.917551581152
0	11189	125.1	84.967026734639
0	11224	125.2	85.015967118776
0	11230	125.3	85.065870637376
0	11236	125.4	85.114919656988
0	11257	125.5	85.16457380006
0	11263	125.6	85.214170736516
0	11269	125.7	85.262970353119
0	11290	125.8	85.311336617135
0	11296	125.9	85.360228055844
0	11302	126	85.408879286649
0	11308	126.1	85.458374531189
0	11314	126.2	85.5074235587
0	11320	126.3	85.556297010257
0	11326	126.4	85.605936494914
0	11347	126.5	85.65529749133
0	11353	126.6	85.703958430577
0	11359	126.7	85.753464002126
0	11380	126.8	85.803436857589
0	11386	126.9	85.852550979523
0	11392	127	85.901897682217
0	11398	127.1	85.950699648344
0	11404	127.2	85.999116431158
0	11410	127.3	86.0480844835
0	11416	127.4	86.097469929659
0	11437	127.5	86.146740521532
0	11443	127.6	86.195858294348
0	11449	127.7	86.244382513607
0	11470	127.8	86.292860737496
0	11476	127.9	86.341754638627
0	11482	128	86.391252888229
0	11488	128.1	86.439835949655
0	11494	128.2	86.489215688435
0	11500	128.3	86.538135289648
0	11506	128.4	86.586666798323
0	11527	128.5	86.635201308617
0	11533	128.6	86.684101237253
0	11539	128.7	86.733702679484
0	11560	128.8	86.783151466499
0	11566	128.9	86.832091158784
0	11572	129	86.881056549734
0	11578	129.1	86.929629976438
0	11584	129.2	86.977903111775
0	11590	129.3	87.025952020983
0	11596	129.4	87.073633753884
0	11617	129.5	87.121900981057
0	11623	129.6	87.170613922916
0	11629	129.7	87.219757023923
0	11650	129.8	87.268916348041
0	11656	129.9	87.317914020699
0	11662	130	87.367481618335
0	11668	130.1	87.417452424631
0	11703	130.2	87.466853591054
0	11709	130.3	87.516390799122
0	11715	130.4	87.564977522039
0	11736	130.5	87.613231847395
0	11742	130.6	87.661195706736
0	11748	130.7	87.709180066437
0	11769	130.8	87.75764799239
0	11775	130.9	87.806292644448
0	11781	131	87.854714458946
0	11787	131.1	87.903988357895
0	11793	131.2	87.952786745578
0	11799	131.3	88.002523363569
0	11805	131.4	88.051298732023
0	11826	131.5	88.099862754769
0	11832	131.6	88.149350266544
0	11838	131.7	88.198409525479
0	11859	131.8	88.247655845859
0	11865	131.9	88.29740111661
0	11871	132	88.347178548211
0	11877	132.1	88.396018659512
0	11883	132.2	88.445007231696
0	11889	132.3	88.493521305173
0	11895	132.4	88.541562006978
0	11916	132.5	88.589113708295
0	11922	132.6	88.637487486339
0	11928	132.7	88.685453880183
0	11949	132.8	88.734053419614
0	11955	132.9	88.782965640658
0	11961	133	88.831741751859
0	11967	133.1	88.881212431669
0	11973	133.2	88.930362964255
0	11979	133.3	88.980084239138
0	11985	133.4	89.029927134971
0	12006	133.5	89.079752297049
0	12012	133.6	89.129215838504
0	12018	133.7	89.179208856254
0	12039	133.8	89.228571575371
0	12045	133.9	89.277575279712
0	12051	134	89.32697274743
0	12057	134.1	89.376844055525
0	12063	134.2	89.426750022232
0	12069	134.3	89.476332847458
0	12075	134.4	89.526078878427
0	12096	134.5	89.574631235965
0	12102	134.6	89.623956748161
0	12108	134.7	89.6727485545
0	12129	134.8	89.721661198923
0	12135	134.9	89.770719912966
0	12141	135	89.819951791891
0	12147	135.1	89.868494147277
0	12182	135.2	89.917490735491
0	12188	135.3	89.96630545008
0	12194	135.4	90.015287223505
0	12215	135.5	90.064675546434
0	12221	135.6	90.113242347536
0	12227	135.7	90.161911674678
0	12248	135.8	90.211402626407
0	12254	135.9	90.260776317606
0	12260	136	90.309603945018
0	12266	136.1	90.358390951891
0	12272	136.2	90.406803448266
0	12278	136.3	90.45582687856
0	12284	136.4	90.504689587992
0	12305	136.5	90.55386248462
0	12311	136.6	90.603002070005
0	12317	136.7	90.651569499991
0	12338	136.8	90.699668000507
0	12344	136.9	90.747474114579
0	12350	137	90.795741583018
0	12356	137.1	90.843677500202
0	12362	137.2	90.891655503626
0	12368	137.3	90.939988511885
0	12374	137.4	90.989267906125
0	12395	137.5	91.038112713936
0	12401	137.6	91.087204363371
0	12407	137.7	91.136025080618
0	12428	137.8	91.184723763668
0	12434	137.9	91.233232095665
0	12440	138	91.282289450918
0	12446	138.1	91.331088253018
0	12452	138.2	91.380063785621
0	12458	138.3	91.429329328924
0	12464	138.4	91.478316640055
0	12485	138.5	91.528271913161
0	12491	138.6	91.578118437937
0	12497	138.7	91.627680171885
0	12518	138.8	91.676205686717
0	12524	138.9	91.725521582889
0	12530	139	91.775025688439
0	12536	139.1	91.824949108841
0	12542	139.2	91.874452205523
0	12548	139.3	91.923971716097
0	12554	139.4	91.972551505339
0	12575	139.5	92.020863563454
0	12581	139.6	92.069601475243
0	12587	139.7	92.119302233448
0	12608	139.8	92.168055686773
0	12614	139.9	92.216818335842
0	12620	140	92.266352438192
0	12626	140.1	92.314858331286
0	12661	140.2	92.364213874224
0	12667	140.3	92.412913202419
0	12673	140.4	92.462171131372
0	12694	140.5	92.511518101167
0	12700	140.6	92.560324916382
0	12706	140.7	92.609115469056
0	12727	140.8	92.657499225166
0	12733	140.9	92.705951270785
0	12739	141	92.755256601166
0	12745	141.1	92.803930060627
0	12751	141.2	92.85244978679
0	12757	141.3	92.900901707276
0	12763	141.4	92.950273027445
0	12784	141.5	92.999678693332
0	12790	141.6	93.049427539604
0	12796	141.7	93.098194683744
0	12817	141.8	93.146911034941
0	12823	141.9	93.195302769742
0	12829	142	93.243244641883
0	12835	142.1	93.2910243926
0	12841	142.2	93.338312793689
0	12847	142.3	93.38567903995
0	12853	142.4	93.433989591802
0	12874	142.5	93.483278766389
0	12880	142.6	93.532765610577
0	12886	142.7	93.581530402998
0	12907	142.8	93.629995993356
0	12913	142.9	93.678020364926
0	12919	143	93.726947054294
0	12925	143.1	93.776806886993
0	12931	143.2	93.825436961601
0	12937	143.3	93.874609466159
0	12943	143.4	93.923772485057
0	12964	143.5	93.972298817733
0	12970	143.6	94.021224477611
0	12976	143.7	94.070151330393
0	12997	143.8	94.119476863822
0	13003	143.9	94.16832457183
0	13009	144	94.217380707745
0	13015	144.1	94.267024423046
0	13021	144.2	94.316617463896
0	13027	144.3	94.366230375071
0	13033	144.4	94.415431894575
0	13054	144.5	94.464377111045
0	13060	144.6	94.512898407659
0	13066	144.7	94.561378573206
0	13087	144.8	94.609686949489
0	13093	144.9	94.658741936603
0	13099	145	94.708180842666
0	13105	145.1	94.757560172332
0	13140	145.2	94.806530601985
0	13146	145.3	94.856057193676
0	13152	145.4	94.905602255792
0	13173	145.5	94.955068422069
0	13179	145.6	95.003852968943
0	13185	145.7	95.05277113068
0	13206	145.8	95.102576376498
0	13212	145.9	95.152459007354
0	13218	146	95.201902076931
0	13224	146.1	95.25075219035
0	13230	146.2	95.299569278635
0	13236	146.3	95.348324393389
0	13242	146.4	95.396928693045
0	13263	146.5	95.446102263637
0	13269	146.6	95.49527987921
0	13275	146.7	95.544464850249
0	13296	146.8	95.593355401497
0	13302	146.9	95.641810646898
0	13308	147	95.690848907387
0	13314	147.1	95.739658984883
0	13320	147.2	95.788479106554
0	13326	147.3	95.837428871418
0	13332	147.4	95.88621631661
0	13353	147.5	95.93458771311
0	13359	147.6	95.983904072485
0	13365	147.7	96.033682972334
0	13386	147.8	96.082548541495
0	13392	147.9	96.132288423618
0	13398	148	96.181514238063
0	13404	148.1	96.231184446899
0	13410	148.2	96.280773003338
0	13416	148.3	96.329720242613
0	13422	148.4	96.379622192729
0	13443	148.5	96.428312213589
0	13449	148.6	96.477335516023
0	13455	148.7	96.526581926084
0	13476	148.8	96.575771854145
0	13482	148.9	96.624803537707
0	13488	149	96.674286252827
0	13494	149.1	96.724134591588
0	13500	149.2	96.773657023179
0	13506	149.3	96.823404809993
0	13512	149.4	96.872570610225
0	13533	149.5	96.922093567271
0	13539	149.6	96.970656466506
0	13545	149.7	97.018770764322
0	13566	149.8	97.06695487332
0	13572	149.9	97.115212736418
0	13578	150	97.162992531664
0	13584	150.1	97.21044140218
0	13619	150.2	97.257742667768
0	13625	150.3	97.305573547438
0	13631	150.4	97.353856118568
0	13652	150.5	97.402836789547
0	13658	150.6	97.452086738339
0	13664	150.7	97.500601185562
0	13685	150.8	97.548747406361
0	13691	150.9	97.597716103008
0	13697	151	97.647647014217
0	13703	151.1	97.696299057711
0	13709	151.2	97.74514534601
0	13715	151.3	97.794691349484
0	13721	151.4	97.843680869579
0	13742	151.5	97.892704054909
0	13748	151.6	97.942520926508
0	13754	151.7	97.992131526159
0	13775	151.8	98.042041409218
0	13781	151.9	98.091726618512
0	13787	152	98.14152815999
0	13793	152.1	98.191238305547
0	13799	152.2	98.240210104829
0	13805	152.3	98.290107654491
0	13811	152.4	98.339954872567
0	13832	152.5	98.389753612113
0	13838	152.6	98.439278800421
0	13844	152.7	98.488830674964
0	13865	152.8	98.538448079293
0	13871	152.9	98.587322274317
0	13877	153	98.635699435157
0	13883	153.1	98.684275629115
0	13889	153.2	98.732435518998
0	13895	153.3	98.781000493707
0	13901	153.4	98.830405444746
0	13922	153.5	98.879792284009
0	13928	153.6	98.929348092356
0	13934	153.7	98.978607981915
0	13955	153.8	99.027622416399
0	13961	153.9	99.076930841079
0	13967	154	99.125528100308
0	13973	154.1	99.173798212304
0	13979	154.2	99.222015357913
0	13985	154.3	99.270497976156
0	13991	154.4	99.31978306348
0	14012	154.5	99.369187542977
0	14018	154.6	99.418130940669
0	14024	154.7	99.467647010074
0	14045	154.8	99.517491027962
0	14051	154.9	99.566129180268
0	14057	155	99.614703756362
0	14063	155.1	99.663355417812
0	14098	155.2	99.711818330908
0	14104	155.3	99.760027774953
0	14110	155.4	99.8085120305
0	14131	155.5	99.856674503664
0	14137	155.6	99.904462348309
0	14143	155.7	99.952842866304
0	14164	155.8	100.00131206626
0	14170	155.9	100.04999139017
0	14176	156	100.09886379541
0	14182	156.1	100.147329706
0	14188	156.2	100.19633783354
0	14194	156.3	100.24486268257
0	14200	156.4	100.29303433477
0	14221	156.5	100.34151790265
0	14227	156.6	100.38977529063
0	14233	156.7	100.43787910811
0	14254	156.8	100.48596608314
0	14260	156.9	100.53457330735
0	14266	157	100.58388585508
0	14272	157.1	100.63287856353
0	14278	157.2	100.68160681204
0	14284	157.3	100.73131068135
0	14290	157.4	100.78034647629
0	14311	157.5	100.82968216674
0	14317	157.6	100.87833503511
0	14323	157.7	100.92750569407
0	14344	157.8	100.97679441685
0	14350	157.9	101.02602226619
0	14356	158	101.07581160691
0	14362	158.1	101.12474226846
0	14368	158.2	101.17342721548
0	14374	158.3	101.22302529858
0	14380	158.4	101.27258821535
0	14401	158.5	101.32253114834
0	14407	158.6	101.37109633218
0	14413	158.7	101.4196607628
0	14434	158.8	101.46777889278
0	14440	158.9	101.51609978133
0	14446	159	101.56421756711
0	14452	159.1	101.6127737319
0	14458	159.2	101.66179916815
0	14464	159.3	101.71123176643
0	14470	159.4	101.76024497323
0	14491	159.5	101.8097057935
0	14497	159.6	101.85835524233
0	14503	159.7	101.90652977886
0	14524	159.8	101.95565867561
0	14530	159.9	102.00536824068
0	14536	160	102.0551998657
0	14542	160.1	102.10513631962
0	14577	160.2	102.15479470814
0	14583	160.3	102.20412451816
0	14589	160.4	102.25286903261
0	14610	160.5	102.30228081101
0	14616	160.6	102.35153989313
0	14622	160.7	102.40014546501
0	14643	160.8	102.44875021483
0	14649	160.9	102.49715784613
0	14655	161	102.54573898648
0	14661	161.1	102.59384942714
0	14667	161.2	102.64207687456
0	14673	161.3	102.69123605592
0	14679	161.4	102.74093908172
0	14700	161.5	102.79033192128
0	14706	161.6	102.83943000551
0	14712	161.7	102.88827210921
0	14733	161.8	102.93749458371
0	14739	161.9	102.98642949625
0	14745	162	103.03517960453
0	14751	162.1	103.08445382252
0	14757	162.2	103.13298491716
0	14763	162.3	103.18154152707
0	14769	162.4	103.22977663988
0	14790	162.5	103.27817784616
0	14796	162.6	103.32646664777
0	14802	162.7	103.37459963328
0	14823	162.8	103.42237024623
0	14829	162.9	103.47091533454
0	14835	163	103.51962299772
0	14841	163.1	103.56868809314
0	14847	163.2	103.6173033546
0	14853	163.3	103.66676097402
0	14859	163.4	103.7152871132
0	14880	163.5	103.76350007539
0	14886	163.6	103.81260229816
0	14892	163.7	103.86186584859
0	14913	163.8	103.91078950934
0	14919	163.9	103.95960594277
0	14925	164	104.00806263502
0	14931	164.1	104.05631952911
0	14937	164.2	104.10511002763
0	14943	164.3	104.15415287398
0	14949	164.4	104.20310019533
0	14970	164.5	104.25283986141
0	14976	164.6	104.30254887521
0	14982	164.7	104.35182731154
0	15003	164.8	104.40137994284
0	15009	164.9	104.45008610397
0	15015	165	104.4989128491
0	15021	165.1	104.54821659644
0	15056	165.2	104.59694334689
0	15062	165.3	104.64546277968
0	15068	165.4	104.69348468015
0	15089	165.5	104.74123561908
0	15095	165.6	104.78936487321
0	15101	165.7	104.83830287902
0	15122	165.8	104.88697992346
0	15128	165.9	104.93656733103
0	15134	166	104.98604192421
0	15140	166.1	105.03466231723
0	15146	166.2	105.08284156054
0	15152	166.3	105.13105995696
0	15158	166.4	105.1792453809
0	15179	166.5	105.2283671231
0	15185	166.6	105.27759540259
0	15191	166.7	105.32677510032
0	15212	166.8	105.3762649492
0	15218	166.9	105.42616205394
0	15224	167	105.47581869255
0	15230	167.1	105.52528171664
0	15236	167.2	105.57462900366
0	15242	167.3	105.62374261357
0	15248	167.4	105.67265902629
0	15269	167.5	105.72209899119
0	15275	167.6	105.77160556054
0	15281	167.7	105.82157602308
0	15302	167.8	105.87151471079
0	15308	167.9	105.92112797825
0	15314	168	105.97001761076
0	15320	168.1	106.01896477253
0	15326	168.2	106.06775725077
0	15332	168.3	106.11639634985
0	15338	168.4	106.16475059774
0	15359	168.5	106.21302436672
0	15365	168.6	106.26082961933
0	15371	168.7	106.30828663411
0	15392	168.8	106.35586357314
0	15398	168.9	106.40355827567
0	15404	169	106.45220157763
0	15410	169.1	106.50034708973
0	15416	169.2	106.54929523784
0	15422	169.3	106.59813286514
0	15428	169.4	106.64673896965
0	15449	169.5	106.69578549236
0	15455	169.6	106.74549021428
0	15461	169.7	106.79534207445
0	15482	169.8	106.84421916543
0	15488	169.9	106.89341727612
0	15494	170	106.94234669947
0	15500	170.1	106.99090301136
0	15535	170.2	107.04023944764
0	15541	170.3	107.08886069113
0	15547	170.4	107.13786449494
0	15568	170.5	107.18740659442
0	15574	170.6	107.23599200103
0	15580	170.7	107.2840914301
0	15601	170.8	107.33289252085
0	15607	170.9	107.38170835408
0	15613	171	107.43136444432
0	15619	171.1	107.48038807332
0	15625	171.2	107.52914710349
0	15631	171.3	107.57787938584
0	15637	171.4	107.62698566848
0	15658	171.5	107.67641106894
0	15664	171.6	107.72582138532
0	15670	171.7	107.7749368176
0	15691	171.8	107.82361446669
0	15697	171.9	107.87189851655
0	15703	172	107.92110227198
0	15709	172.1	107.97082983839
0	15715	172.2	108.02066150191
0	15721	172.3	108.07037149994
0	15727	172.4	108.11985158823
0	15748	172.5	108.1690917907
0	15754	172.6	108.21814759887
0	15760	172.7	108.26704938554
0	15781	172.8	108.31561600491
0	15787	172.9	108.36369899162
0	15793	173	108.41178769362
0	15799	173.1	108.45960834883
0	15805	173.2	108.50726194578
0	15811	173.3	108.55545424467
0	15817	173.4	108.60333300515
0	15838	173.5	108.65214762091
0	15844	173.6	108.70196168566
0	15850	173.7	108.75155108672
0	15871	173.8	108.80085794042
0	15877	173.9	108.84990039608
0	15883	174	108.89974774069
0	15889	174.1	108.94873822548
0	15895	174.2	108.99752598648
0	15901	174.3	109.0470357781
0	15907	174.4	109.09641309021
0	15928	174.5	109.14563311273
0	15934	174.6	109.19495540221
0	15940	174.7	109.24375565731
0	15961	174.8	109.29211512883
0	15967	174.9	109.3402761706
0	15973	175	109.38932022315
0	15979	175.1	109.4381128198
0	16014	175.2	109.48780552194
0	16020	175.3	109.53745156637
0	16026	175.4	109.58722192103
0	16047	175.5	109.63692564238
0	16053	175.6	109.68613316968
0	16059	175.7	109.73512563489
0	16080	175.8	109.78441261819
0	16086	175.9	109.83297307473
0	16092	176	109.88217309278
0	16098	176.1	109.93102838244
0	16104	176.2	109.97957839884
0	16110	176.3	110.02828531606
0	16116	176.4	110.07730789954
0	16137	176.5	110.12641362288
0	16143	176.6	110.17577040821
0	16149	176.7	110.22493761739
0	16170	176.8	110.27431221647
0	16176	176.9	110.3237115119
0	16182	177	110.3726684922
0	16188	177.1	110.42248619568
0	16194	177.2	110.47223638257
0	16200	177.3	110.52095958487
0	16206	177.4	110.56952617115
0	16227	177.5	110.61867057685
0	16233	177.6	110.66810467345
0	16239	177.7	110.7167156337
0	16260	177.8	110.7650994781
0	16266	177.9	110.81356180305
0	16272	178	110.86269189274
0	16278	178.1	110.91262551478
0	16284	178.2	110.96197862801
0	16290	178.3	111.0109696873
0	16296	178.4	111.05971802584
0	16317	178.5	111.10818733087
0	16323	178.6	111.15760747205
0	16329	178.7	111.2072412365
0	16350	178.8	111.25673259461
0	16356	178.9	111.3064494963
0	16362	179	111.35524503324
0	16368	179.1	111.40388937152
0	16374	179.2	111.45275846025
0	16380	179.3	111.50115315926
0	16386	179.4	111.55033177045
0	16407	179.5	111.59898229289
0	16413	179.6	111.64845812045
0	16419	179.7	111.69821334789
0	16440	179.8	111.74716901909
0	16446	179.9	111.79696033574
0	16452	180	111.84611156809
0	16458	180.1	111.89548121779
0	16493	180.2	111.94438850684
0	16499	180.3	111.99294478304
0	16505	180.4	112.04134625197
0	16526	180.5	112.08947318608
0	16532	180.6	112.13855070202
0	16538	180.7	112.18808540877
0	16559	180.8	112.23731225914
0	16565	180.9	112.28668832917
0	16571	181	112.33634144674
0	16577	181.1	112.38587963559
0	16583	181.2	112.43446148914
0	16589	181.3	112.48360207136
0	16595	181.4	112.5330712152
0	16616	181.5	112.58306565054
0	16622	181.6	112.63179803409
0	16628	181.7	112.68129815658
0	16649	181.8	112.73099194017
0	16655	181.9	112.7806090434
0	16661	182	112.82928211031
0	16667	182.1	112.87864550012
0	16673	182.2	112.92744921058
0	16679	182.3	112.97604084702
0	16685	182.4	113.02424195262
0	16706	182.5	113.07326971625
0	16712	182.6	113.12294379779
0	16718	182.7	113.17182945035
0	16739	182.8	113.22142110178
0	16745	182.9	113.27099160746
0	16751	183	113.32074149509
0	16757	183.1	113.37048245006
0	16763	183.2	113.41976012002
0	16769	183.3	113.46959559543
0	16775	183.4	113.519113049
0	16796	183.5	113.56847315813
0	16802	183.6	113.61843633595
0	16808	183.7	113.66785383621
0	16829	183.8	113.71771265256
0	16835	183.9	113.76697228475
0	16841	184	113.81573367747
0	16847	184.1	113.86426743695
0	16853	184.2	113.91368052365
0	16859	184.3	113.96277868202
0	16865	184.4	114.01152680244
0	16886	184.5	114.06091796405
0	16892	184.6	114.10977507428
0	16898	184.7	114.15829603799
0	16919	184.8	114.20660781547
0	16925	184.9	114.25575864141
0	16931	185	114.30574505141
0	16937	185.1	114.35545746525
0	16972	185.2	114.40505174923
0	16978	185.3	114.45412747473
0	16984	185.4	114.50355106497
0	17005	185.5	114.55249595443
0	17011	185.6	114.60191123144
0	17017	185.7	114.6516795933
0	17038	185.8	114.70121055854
0	17044	185.9	114.7498840722
0	17050	186	114.79811978734
0	17056	186.1	114.84704423339
0	17062	186.2	114.89578597685
0	17068	186.3	114.94511769721
0	17074	186.4	114.99378699989
0	17095	186.5	115.04320798414
0	17101	186.6	115.09220904427
0	17107	186.7	115.14208272737
0	17128	186.8	115.19062188738
0	17134	186.9	115.23911009738
0	17140	187	115.28733558377
0	17146	187.1	115.33571106615
0	17152	187.2	115.38437134649
0	17158	187.3	115.43309880324
0	17164	187.4	115.48203314772
0	17185	187.5	115.53126341568
0	17191	187.6	115.58012424029
0	17197	187.7	115.62971776347
0	17218	187.8	115.6794610054
0	17224	187.9	115.72881324143
0	17230	188	115.77833211955
0	17236	188.1	115.82822093277
0	17242	188.2	115.87695422704
0	17248	188.3	115.92553011709
0	17254	188.4	115.9742901249
0	17275	188.5	116.0225811459
0	17281	188.6	116.0717632668
0	17287	188.7	116.12061326286
0	17308	188.8	116.17006370332
0	17314	188.9	116.21951080495
0	17320	189	116.26918188588
0	17326	189.1	116.31799832903
0	17332	189.2	116.36759841204
0	17338	189.3	116.41633838699
0	17344	189.4	116.46508599548
0	17365	189.5	116.51474506909
0	17371	189.6	116.56352859649
0	17377	189.7	116.61237049032
0	17398	189.8	116.66085491067
0	17404	189.9	116.70921624757
0	17410	190	116.75773590307
0	17416	190.1	116.80600073781
0	17451	190.2	116.85484849719
0	17457	190.3	116.90387583148
0	17463	190.4	116.95343540625
0	17484	190.5	117.00198309967
0	17490	190.6	117.05119149863
0	17496	190.7	117.10116789127
0	17517	190.8	117.15067910902
0	17523	190.9	117.19992534492
0	17529	191	117.24988280052
0	17535	191.1	117.29904392807
0	17541	191.2	117.34773250391
0	17547	191.3	117.39636398147
0	17553	191.4	117.44506100655
0	17574	191.5	117.493324089
0	17580	191.6	117.54114975246
0	17586	191.7	117.58873901621
0	17607	191.8	117.6364166672
0	17613	191.9	117.68436267135
0	17619	192	117.73328870133
0	17625	192.1	117.78230533845
0	17631	192.2	117.83082170634
0	17637	192.3	117.87911092265
0	17643	192.4	117.92788923199
0	17664	192.5	117.9774394708
0	17670	192.6	118.02626338288
0	17676	192.7	118.07497138822
0	17697	192.8	118.12322882337
0	17703	192.9	118.17117399498
0	17709	193	118.21928567265
0	17715	193.1	118.26824542395
0	17721	193.2	118.31747992427
0	17727	193.3	118.36700938169
0	17733	193.4	118.41624076896
0	17754	193.5	118.4657882166
0	17760	193.6	118.51449548212
0	17766	193.7	118.56293625712
0	17787	193.8	118.61190383439
0	17793	193.9	118.66097203963
0	17799	194	118.71032676835
0	17805	194.1	118.75896312921
0	17811	194.2	118.80831844872
0	17817	194.3	118.85727185613
0	17823	194.4	118.90576970055
0	17844	194.5	118.95500463168
0	17850	194.6	119.00470168203
0	17856	194.7	119.05366109703
0	17877	194.8	119.10245178114
0	17883	194.9	119.15150664166
0	17889	195	119.20059211196
0	17895	195.1	119.25027308835
0	17930	195.2	119.29955816702
0	17936	195.3	119.34939005919
0	17942	195.4	119.3989079263
0	17963	195.5	119.44848075675
0	17969	195.6	119.49781381872
0	17975	195.7	119.54641862917
0	17996	195.8	119.59575153813
0	18002	195.9	119.64514945576
0	18008	196	119.69422605993
0	18014	196.1	119.7428062243
0	18020	196.2	119.79218666638
0	18026	196.3	119.84080985145
0	18032	196.4	119.89031145583
0	18053	196.5	119.93959034373
0	18059	196.6	119.98890845892
0	18065	196.7	120.03859405482
0	18086	196.8	120.08807286532
0	18092	196.9	120.13739161741
0	18098	197	120.18609380022
0	18104	197.1	120.23436338682
0	18110	197.2	120.28285458489
0	18116	197.3	120.33104063329
0	18122	197.4	120.3793144243
0	18143	197.5	120.42806458431
0	18149	197.6	120.477523453
0	18155	197.7	120.52690375084
0	18176	197.8	120.57611951441
0	18182	197.9	120.62605284933
0	18188	198	120.67583408759
0	18194	198.1	120.72493381096
0	18200	198.2	120.77459630857
0	18206	198.3	120.823340319
0	18212	198.4	120.87259391607
0	18233	198.5	120.92243666476
0	18239	198.6	120.97231136887
0	18245	198.7	121.02090568435
0	18266	198.8	121.07032296935
0	18272	198.9	121.1201116047
0	18278	199	121.16881760562
0	18284	199.1	121.21814217434
0	18290	199.2	121.26714324722
0	18296	199.3	121.31591815869
0	18302	199.4	121.3647822992
0	18323	199.5	121.41321020689
0	18329	199.6	121.46157479023
0	18335	199.7	121.51077024631
0	18356	199.8	121.55993263127
0	18362	199.9	121.60885535148
0	18368	200	121.65757513584
0	18374	200.1	121.70725543821
0	18409	200.2	121.75617711984
0	18415	200.3	121.80486028025
0	18421	200.4	121.85342318994
0	18442	200.5	121.9022175759
0	18448	200.6	121.95132493042
0	18454	200.7	122.00050080255
0	18475	200.8	122.04944383699
0	18481	200.9	122.0980025
0	18487	201	122.14663561017
0	18493	201.1	122.19493696889
0	18499	201.2	122.24318644234
0	18505	201.3	122.29233341123
0	18511	201.4	122.34158216895
0	18532	201.5	122.39115243943
0	18538	201.6	122.44072467705
0	18544	201.7	122.49019078572
0	18565	201.8	122.53971868656
0	18571	201.9	122.58885077159
0	18577	202	122.63782536934
0	18583	202.1	122.687396843
0	18589	202.2	122.73720219906
0	18595	202.3	122.78711398598
0	18601	202.4	122.83625035672
0	18622	202.5	122.88597116147
0	18628	202.6	122.93595728949
0	18634	202.7	122.98456565986
0	18655	202.8	123.03336831962
0	18661	202.9	123.0830323071
0	18667	203	123.13176792544
0	18673	203.1	123.18002873967
0	18679	203.2	123.22861665292
0	18685	203.3	123.27814083175
0	18691	203.4	123.32796451283
0	18712	203.5	123.37739203221
0	18718	203.6	123.42606374825
0	18724	203.7	123.47551340627
0	18745	203.8	123.52427742113
0	18751	203.9	123.5740189716
0	18757	204	123.62333288855
0	18763	204.1	123.67236629284
0	18769	204.2	123.72227572362
0	18775	204.3	123.77135357949
0	18781	204.4	123.81993697331
0	18802	204.5	123.86927997726
0	18808	204.6	123.91818556018
0	18814	204.7	123.96717750225
0	18835	204.8	124.01689176972
0	18841	204.9	124.06688246459
0	18847	205	124.11686853792
0	18853	205.1	124.16607039931
0	18888	205.2	124.21465623019
0	18894	205.3	124.26327561314
0	18900	205.4	124.31182354631
0	18921	205.5	124.36063068125
0	18927	205.6	124.40956498278
0	18933	205.7	124.45930973302
0	18954	205.8	124.50799450209
0	18960	205.9	124.55653808221
0	18966	206	124.6045843639
0	18972	206.1	124.65318406118
0	18978	206.2	124.7024432318
0	18984	206.3	124.75225548931
0	18990	206.4	124.80080917468
0	19011	206.5	124.84919153227
0	19017	206.6	124.89832440295
0	19023	206.7	124.94749537325
0	19044	206.8	124.99687472094
0	19050	206.9	125.04664749193
0	19056	207	125.09640438247
0	19062	207.1	125.14495917747
0	19068	207.2	125.1940565262
0	19074	207.3	125.24264436727
0	19080	207.4	125.29211879233
0	19101	207.5	125.34142758776
0	19107	207.6	125.39123315919
0	19113	207.7	125.44122597812
0	19134	207.8	125.49039532901
0	19140	207.9	125.54022448786
0	19146	208	125.58914145105
0	19152	208.1	125.63801123969
0	19158	208.2	125.68761652896
0	19164	208.3	125.73620391575
0	19170	208.4	125.78470973743
0	19191	208.5	125.83376860372
0	19197	208.6	125.88270475306
0	19203	208.7	125.93154300701
0	19224	208.8	125.98086792145
0	19230	208.9	126.0303045386
0	19236	209	126.07976587884
0	19242	209.1	126.12884095118
0	19248	209.2	126.17749033596
0	19254	209.3	126.22687993088
0	19260	209.4	126.27556713147
0	19281	209.5	126.32521285232
0	19287	209.6	126.37422234442
0	19293	209.7	126.42360068611
0	19314	209.8	126.47241376378
0	19320	209.9	126.52114504426
0	19326	210	126.57015616304
0	19332	210.1	126.61919036697
0	19367	210.2	126.66843770728
0	19373	210.3	126.71722042957
0	19379	210.4	126.76628902589
0	19400	210.5	126.8155042919
0	19406	210.6	126.86512851102
0	19412	210.7	126.91422094649
0	19433	210.8	126.96376658928
0	19439	210.9	127.01290066326
0	19445	211	127.06264614608
0	19451	211.1	127.11240694245
0	19457	211.2	127.16178139783
0	19463	211.3	127.21114116856
0	19469	211.4	127.26073900467
0	19490	211.5	127.31054160939
0	19496	211.6	127.36048279358
0	19502	211.7	127.41044494584
0	19523	211.8	127.46003762041
0	19529	211.9	127.50934484025
0	19535	212	127.55825547532
0	19541	212.1	127.60745380284
0	19547	212.2	127.65609772662
0	19553	212.3	127.70568882068
0	19559	212.4	127.75541782975
0	19580	212.5	127.80491005801
0	19586	212.6	127.85404381372
0	19592	212.7	127.90276470949
0	19613	212.8	127.95196030231
0	19619	212.9	128.00155831928
0	19625	213	128.05146548553
0	19631	213.1	128.10023353032
0	19637	213.2	128.14943207545
0	19643	213.3	128.19857475015
0	19649	213.4	128.24709941703
0	19670	213.5	128.29662169205
0	19676	213.6	128.34640351684
0	19682	213.7	128.39523485035
0	19703	213.8	128.44385849263
0	19709	213.9	128.49232826423
0	19715	214	128.5409925375
0	19721	214.1	128.58918852528
0	19727	214.2	128.63779023623
0	19733	214.3	128.68648903163
0	19739	214.4	128.73609277353
0	19760	214.5	128.78547798735
0	19766	214.6	128.83439423722
0	19772	214.7	128.88395237884
0	19793	214.8	128.93253663746
0	19799	214.9	128.98109072103
0	19805	215	129.03021344154
0	19811	215.1	129.07905994316
0	19846	215.2	129.12878169762
0	19852	215.3	129.17731953598
0	19858	215.4	129.22678344645
0	19879	215.5	129.27538326262
0	19885	215.6	129.32460379799
0	19891	215.7	129.37346706182
0	19912	215.8	129.42333021512
0	19918	215.9	129.47294885498
0	19924	216	129.52182520407
0	19930	216.1	129.57090304906
0	19936	216.2	129.62073062083
0	19942	216.3	129.67014017621
0	19948	216.4	129.71957685218
0	19969	216.5	129.76872460881
0	19975	216.6	129.81772264319
0	19981	216.7	129.86645943221
0	20002	216.8	129.91545037414
0	20008	216.9	129.9648532835
0	20014	217	130.0146373187
0	20020	217.1	130.06343008426
0	20026	217.2	130.11215279421
0	20032	217.3	130.16126248806
0	20038	217.4	130.2104848396
0	20059	217.5	130.25948706533
0	20065	217.6	130.30923985695
0	20071	217.7	130.35919906025
0	20092	217.8	130.4087228047
0	20098	217.9	130.45782942716
0	20104	218	130.50709951802
0	20110	218.1	130.55606068608
0	20116	218.2	130.60479231944
0	20122	218.3	130.65379128909
0	20128	218.4	130.7035888582
0	20149	218.5	130.75231291621
0	20155	218.6	130.80117448872
0	20161	218.7	130.84992615501
0	20182	218.8	130.89862082432
0	20188	218.9	130.94686317598
0	20194	219	130.99566256667
0	20200	219.1	131.04440399719
0	20206	219.2	131.09359691322
0	20212	219.3	131.14300379714
0	20218	219.4	131.19265790519
0	20239	219.5	131.24214188992
0	20245	219.6	131.29071944479
0	20251	219.7	131.33985814338
0	20272	219.8	131.38948915747
0	20278	219.9	131.4386144505
0	20284	220	131.48822739658
0	20290	220.1	131.53751731799
0	20325	220.2	131.58626605361
0	20331	220.3	131.63566918875
0	20337	220.4	131.68502915163
0	20358	220.5	131.73411341703
0	20364	220.6	131.78329497364
0	20370	220.7	131.83183288878
0	20391	220.8	131.88035024855
0	20397	220.9	131.92875768895
0	20403	221	131.97671469543
0	20409	221.1	132.02505004486
0	20415	221.2	132.07385232456
0	20421	221.3	132.12358881063
0	20427	221.4	132.17331250417
0	20448	221.5	132.22295671971
0	20454	221.6	132.27268146302
0	20460	221.7	132.32154928717
0	20481	221.8	132.37061328686
0	20487	221.9	132.41961183616
0	20493	222	132.46837969222
0	20499	222.1	132.51780138737
0	20505	222.2	132.56731250147
0	20511	222.3	132.61624996107
0	20517	222.4	132.66559828225
0	20538	222.5	132.71555437584
0	20544	222.6	132.764901943
0	20550	222.7	132.81353953337
0	20571	222.8	132.86256359147
0	20577	222.9	132.9120652181
0	20583	223	132.96058093048
0	20589	223.1	133.00913001952
0	20595	223.2	133.05813011152
0	20601	223.3	133.10797708222
0	20607	223.4	133.15679530805
0	20628	223.5	133.20555142149
0	20634	223.6	133.25392466122
0	20640	223.7	133.30297198751
0	20661	223.8	133.35279960098
0	20667	223.9	133.40171349219
0	20673	224	133.45132228964
0	20679	224.1	133.50105813388
0	20685	224.2	133.55057842288
0	20691	224.3	133.59935318517
0	20697	224.4	133.64831864254
0	20718	224.5	133.69821532438
0	20724	224.6	133.74751948236
0	20730	224.7	133.79649351294
0	20751	224.8	133.84565999087
0	20757	224.9	133.89480131555
0	20763	225	133.94446414956
0	20769	225.1	133.99319254055
0	20804	225.2	134.04207883346
0	20810	225.3	134.09089525735
0	20816	225.4	134.13923888492
0	20837	225.5	134.1879402145
0	20843	225.6	134.23631994418
0	20849	225.7	134.28568875233
0	20870	225.8	134.33563864139
0	20876	225.9	134.38475322151
0	20882	226	134.43428604741
0	20888	226.1	134.48391363257
0	20894	226.2	134.53349672953
0	20900	226.3	134.58301912513
0	20906	226.4	134.63192570359
0	20927	226.5	134.68097848809
0	20933	226.6	134.72979493413
0	20939	226.7	134.7783660853
0	20960	226.8	134.82667283419
0	20966	226.9	134.87535761685
0	20972	227	134.92441048942
0	20978	227.1	134.9730210906
0	20984	227.2	135.02163904639
0	20990	227.3	135.0711363014
0	20996	227.4	135.12032302097
0	21017	227.5	135.16978901008
0	21023	227.6	135.2183078576
0	21029	227.7	135.26780622202
0	21050	227.8	135.31688795071
0	21056	227.9	135.36580251607
0	21062	228	135.41528372127
0	21068	228.1	135.463823259
0	21074	228.2	135.51207349178
0	21080	228.3	135.55995024532
0	21086	228.4	135.60879815076
0	21107	228.5	135.65779124797
0	21113	228.6	135.70734236982
0	21119	228.7	135.75606882687
0	21140	228.8	135.80484600943
0	21146	228.9	135.85381487648
0	21152	229	135.90361186128
0	21158	229.1	135.95280152708
0	21164	229.2	136.00185367086
0	21170	229.3	136.0504198024
0	21176	229.4	136.09910835742
0	21197	229.5	136.14734581155
0	21203	229.6	136.19514085648
0	21209	229.7	136.24296060092
0	21230	229.8	136.29102148339
0	21236	229.9	136.33938333323
0	21242	230	136.38740961524
0	21248	230.1	136.43639351222
0	21283	230.2	136.4862066969
0	21289	230.3	136.53605358931
0	21295	230.4	136.58491818632
0	21316	230.5	136.63427330681
0	21322	230.6	136.68331635399
0	21328	230.7	136.73241067964
0	21349	230.8	136.78183193769
0	21355	230.9	136.83103458612
0	21361	231	136.88006687831
0	21367	231.1	136.92865545281
0	21373	231.2	136.9773805762
0	21379	231.3	137.02618414833
0	21385	231.4	137.07588593673
0	21406	231.5	137.12445761301
0	21412	231.6	137.1732371664
0	21418	231.7	137.22181480966
0	21439	231.8	137.27131701633
0	21445	231.9	137.32068565112
0	21451	232	137.37030018793
0	21457	232.1	137.41989972409
0	21463	232.2	137.46871254349
0	21469	232.3	137.51758956281
0	21475	232.4	137.56680696416
0	21496	232.5	137.61679108556
0	21502	232.6	137.66534369364
0	21508	232.7	137.71345326683
0	21529	232.8	137.76223651171
0	21535	232.9	137.81195773702
0	21541	233	137.86116243798
0	21547	233.1	137.90973532176
0	21553	233.2	137.95794261177
0	21559	233.3	138.00627290748
0	21565	233.4	138.05514787991
0	21586	233.5	138.10452791101
0	21592	233.6	138.15318104069
0	21598	233.7	138.20209649433
0	21619	233.8	138.25181527361
0	21625	233.9	138.30144263541
0	21631	234	138.35102744306
0	21637	234.1	138.40084212303
0	21643	234.2	138.45014755646
0	21649	234.3	138.4987734801
0	21655	234.4	138.54739622992
0	21676	234.5	138.59691026886
0	21682	234.6	138.64690202664
0	21688	234.7	138.69648765514
0	21709	234.8	138.74594361574
0	21715	234.9	138.79477849124
0	21721	235	138.84316285846
0	21727	235.1	138.89196587491
0	21762	235.2	138.94073885632
0	21768	235.3	138.98901948487
0	21774	235.4	139.03718161355
0	21795	235.5	139.08538945791
0	21801	235.6	139.13448018998
0	21807	235.7	139.18399536718
0	21828	235.8	139.23262527894
0	21834	235.9	139.28195368246
0	21840	236	139.33068829693
0	21846	236.1	139.37937842587
0	21852	236.2	139.42851906826
0	21858	236.3	139.47772530685
0	21864	236.4	139.52691109715
0	21885	236.5	139.57584001648
0	21891	236.6	139.6249941019
0	21897	236.7	139.67479448791
0	21918	236.8	139.7236343059
0	21924	236.9	139.77286471514
0	21930	237	139.82142007431
0	21936	237.1	139.87055016282
0	21942	237.2	139.92015554464
0	21948	237.3	139.96965528356
0	21954	237.4	140.01879680804
0	21975	237.5	140.06745450343
0	21981	237.6	140.11684777635
0	21987	237.7	140.16642825815
0	22008	237.8	140.2155557384
0	22014	237.9	140.26487423704
0	22020	238	140.31420325271
0	22026	238.1	140.36297215131
0	22032	238.2	140.41135523248
0	22038	238.3	140.46001635319
0	22044	238.4	140.50864644621
0	22065	238.5	140.55707495116
0	22071	238.6	140.60572590649
0	22077	238.7	140.65493538721
0	22098	238.8	140.70397826032
0	22104	238.9	140.75310059666
0	22110	239	140.80174825242
0	22116	239.1	140.85131729764
0	22122	239.2	140.89995210057
0	22128	239.3	140.94878525545
0	22134	239.4	140.99859489617
0	22155	239.5	141.0480778429
0	22161	239.6	141.09699134255
0	22167	239.7	141.14617219257
0	22188	239.8	141.19470195401
0	22194	239.9	141.24359780034
0	22200	240	141.29300369382
0	22206	240.1	141.34177118591
0	22241	240.2	141.39071681796
0	22247	240.3	141.43963896015
0	22253	240.4	141.48835254882
0	22274	240.5	141.53705899616
0	22280	240.6	141.58613183226
0	22286	240.7	141.63594463759
0	22307	240.8	141.68507426534
0	22313	240.9	141.73372811534
0	22319	241	141.7827536267
0	22325	241.1	141.83138753885
0	22331	241.2	141.88026615927
0	22337	241.3	141.92921351736
0	22343	241.4	141.97791139273
0	22364	241.5	142.02676237242
0	22370	241.6	142.07647689811
0	22376	241.7	142.12500542901
0	22397	241.8	142.17416518595
0	22403	241.9	142.22309942797
0	22409	242	142.27227599982
0	22415	242.1	142.32155784086
0	22421	242.2	142.37119192964
0	22427	242.3	142.42010870348
0	22433	242.4	142.46985629494
0	22454	242.5	142.51837061497
0	22460	242.6	142.5666168747
0	22466	242.7	142.61506137102
0	22487	242.8	142.6638690379
0	22493	242.9	142.71324700783
0	22499	243	142.76249462062
0	22505	243.1	142.81117549443
0	22511	243.2	142.86044385864
0	22517	243.3	142.90969305245
0	22523	243.4	142.9593412276
0	22544	243.5	143.00883550392
0	22550	243.6	143.05855011316
0	22556	243.7	143.10706430436
0	22577	243.8	143.15572124941
0	22583	243.9	143.20427897177
0	22589	244	143.25368931925
0	22595	244.1	143.30314014293
0	22601	244.2	143.35180118322
0	22607	244.3	143.40133556603
0	22613	244.4	143.45108734119
0	22634	244.5	143.50014921478
0	22640	244.6	143.54921503129
0	22646	244.7	143.59795769073
0	22667	244.8	143.64629711102
0	22673	244.9	143.6954235516
0	22679	245	143.74503449088
0	22685	245.1	143.79439329877
0	22720	245.2	143.84439194385
0	22726	245.3	143.89428722239
0	22732	245.4	143.94394748548
0	22753	245.5	143.99322583253
0	22759	245.6	144.04284854842
0	22765	245.7	144.09153352559
0	22786	245.8	144.14073209344
0	22792	245.9	144.18934515921
0	22798	246	144.2374960441
0	22804	246.1	144.28597213668
0	22810	246.2	144.33510753605
0	22816	246.3	144.38467003685
0	22822	246.4	144.43350553634
0	22843	246.5	144.48293101127
0	22849	246.6	144.53236013697
0	22855	246.7	144.58164227318
0	22876	246.8	144.63077960651
0	22882	246.9	144.67928545586
0	22888	247	144.72844299057
0	22894	247.1	144.77791285502
0	22900	247.2	144.82751851825
0	22906	247.3	144.87697684809
0	22912	247.4	144.92682564131
0	22933	247.5	144.97628592666
0	22939	247.6	145.02495412912
0	22945	247.7	145.0741744468
0	22966	247.8	145.12361654463
0	22972	247.9	145.17219983337
0	22978	248	145.22069055362
0	22984	248.1	145.2694061658
0	22990	248.2	145.31795598888
0	22996	248.3	145.36732104249
0	23002	248.4	145.41662430696
0	23023	248.5	145.46644695277
0	23029	248.6	145.51609652555
0	23035	248.7	145.56588372466
0	23056	248.8	145.6153410228
0	23062	248.9	145.66476856381
0	23068	249	145.71334760094
0	23074	249.1	145.76253044948
0	23080	249.2	145.81182180621
0	23086	249.3	145.8606047371
0	23092	249.4	145.9091642416
0	23113	249.5	145.95759823133
0	23119	249.6	146.00660047042
0	23125	249.7	146.05585801299
0	23146	249.8	146.10557869559
0	23152	249.9	146.15529609632
0	23158	250	146.20464233449
0	23164	250.1	146.25353444617
0	23199	250.2	146.30263668145
0	23205	250.3	146.35130665662
0	23211	250.4	146.39973026859
0	23232	250.5	146.44910647239
0	23238	250.6	146.49825384382
0	23244	250.7	146.54734010193
0	23265	250.8	146.59589773921
0	23271	250.9	146.64542052155
0	23277	251	146.69462386589
0	23283	251.1	146.74431669385
0	23289	251.2	146.79423619949
0	23295	251.3	146.8433549667
0	23301	251.4	146.89219606049
0	23322	251.5	146.9408748561
0	23328	251.6	146.99050821909
0	23334	251.7	147.03989779949
0	23355	251.8	147.08983103505
0	23361	251.9	147.13945927707
0	23367	252	147.18916995601
0	23373	252.1	147.23884718215
0	23379	252.2	147.28833850452
0	23385	252.3	147.33792237746
0	23391	252.4	147.38647895759
0	23412	252.5	147.43550692705
0	23418	252.6	147.48416566828
0	23424	252.7	147.53355284701
0	23445	252.8	147.58240722671
0	23451	252.9	147.63216958811
0	23457	253	147.68147544627
0	23463	253.1	147.73146718061
0	23469	253.2	147.78025174446
0	23475	253.3	147.82861057925
0	23481	253.4	147.87791675299
0	23502	253.5	147.92651598345
0	23508	253.6	147.97495443307
0	23514	253.7	148.02385459032
0	23535	253.8	148.07239143274
0	23541	253.9	148.12148388927
0	23547	254	148.1708699463
0	23553	254.1	148.22072487941
0	23559	254.2	148.26973947098
0	23565	254.3	148.31969506974
0	23571	254.4	148.36896771183
0	23592	254.5	148.41794292406
0	23598	254.6	148.4666862799
0	23604	254.7	148.51620472365
0	23625	254.8	148.56507358811
0	23631	254.9	148.61386383704
0	23637	255	148.66281473016
0	23643	255.1	148.7118886564
0	23678	255.2	148.76175175032
0	23684	255.3	148.81085104375
0	23690	255.4	148.86027876044
0	23711	255.5	148.90897738917
0	23717	255.6	148.95820636958
0	23723	255.7	149.00734147696
0	23744	255.8	149.05670161986
0	23750	255.9	149.10538722695
0	23756	256	149.15469195903
0	23762	256.1	149.20457375549
0	23768	256.2	149.25345077192
0	23774	256.3	149.30270844343
0	23780	256.4	149.35182479589
0	23801	256.5	149.40178521189
0	23807	256.6	149.4503570472
0	23813	256.7	149.49861245495
0	23834	256.8	149.54693206084
0	23840	256.9	149.59622612198
0	23846	257	149.64565915728
0	23852	257.1	149.69419096247
0	23858	257.2	149.74270077213
0	23864	257.3	149.79196910001
0	23870	257.4	149.84127820488
0	23891	257.5	149.88982809826
0	23897	257.6	149.93857592938
0	23903	257.7	149.98828683871
0	23924	257.8	150.03735718057
0	23930	257.9	150.08695035578
0	23936	258	150.13680208684
0	23942	258.1	150.18619772418
0	23948	258.2	150.23535993952
0	23954	258.3	150.28533437845
0	23960	258.4	150.33449580823
0	23981	258.5	150.38372900352
0	23987	258.6	150.43253814094
0	23993	258.7	150.48171195364
0	24014	258.8	150.53088177799
0	24020	258.9	150.57976876404
0	24026	259	150.62831003128
0	24032	259.1	150.67728124666
0	24038	259.2	150.72635001181
0	24044	259.3	150.77530809545
0	24050	259.4	150.82520127307
0	24071	259.5	150.87400013231
0	24077	259.6	150.92323284628
0	24083	259.7	150.97222748787
0	24104	259.8	151.02151463336
0	24110	259.9	151.07046112464
0	24116	260	151.11932111946
0	24122	260.1	151.16889375775
0	24157	260.2	151.21790049639
0	24163	260.3	151.26662351123
0	24169	260.4	151.31599317527
0	24190	260.5	151.36485590006
0	24196	260.6	151.41376788719
0	24202	260.7	151.46224718527
0	24223	260.8	151.51133611347
0	24229	260.9	151.56110469681
0	24235	261	151.61063651529
0	24241	261.1	151.66024957713
0	24247	261.2	151.70911432798
0	24253	261.3	151.75787941488
0	24259	261.4	151.80663997443
0	24280	261.5	151.85607596531
0	24286	261.6	151.90478325511
0	24292	261.7	151.95305568757
0	24313	261.8	152.00153071131
0	24319	261.9	152.05003167595
0	24325	262	152.09878160245
0	24331	262.1	152.14810619238
0	24337	262.2	152.19767697096
0	24343	262.3	152.24720684018
0	24349	262.4	152.29692056518
0	24370	262.5	152.34556767974
0	24376	262.6	152.39392719708
0	24382	262.7	152.44259425539
0	24403	262.8	152.49171043657
0	24409	262.9	152.54030181903
0	24415	263	152.58955964129
0	24421	263.1	152.63872932835
0	24427	263.2	152.68864758112
0	24433	263.3	152.73836077783
0	24439	263.4	152.78745473743
0	24460	263.5	152.83646146195
0	24466	263.6	152.88558996823
0	24472	263.7	152.9342855661
0	24493	263.8	152.98249105615
0	24499	263.9	153.03055075344
0	24505	264	153.07891281305
0	24511	264.1	153.12702397066
0	24517	264.2	153.17595454719
0	24523	264.3	153.22486021767
0	24529	264.4	153.27398838146
0	24550	264.5	153.32372128263
0	24556	264.6	153.37226188221
0	24562	264.7	153.42129482566
0	24583	264.8	153.47037169055
0	24589	264.9	153.51905379919
0	24595	265	153.56797587457
0	24601	265.1	153.61772524318
0	24636	265.2	153.66649713456
0	24642	265.3	153.71573920528
0	24648	265.4	153.76426460498
0	24669	265.5	153.81246426651
0	24675	265.6	153.86038375405
0	24681	265.7	153.90876886181
0	24702	265.8	153.9570182749
0	24708	265.9	154.00478819441
0	24714	266	154.0527686315
0	24720	266.1	154.10104297036
0	24726	266.2	154.15029531048
0	24732	266.3	154.19924500483
0	24738	266.4	154.24790698283
0	24759	266.5	154.29719777505
0	24765	266.6	154.34672523818
0	24771	266.7	154.39597422264
0	24792	266.8	154.44586610242
0	24798	266.9	154.4957316387
0	24804	267	154.54509997256
0	24810	267.1	154.59470814413
0	24816	267.2	154.64409908818
0	24822	267.3	154.69341750874
0	24828	267.4	154.74195309864
0	24849	267.5	154.79007229882
0	24855	267.6	154.83898190377
0	24861	267.7	154.88756762975
0	24882	267.8	154.93703304575
0	24888	267.9	154.98627159254
0	24894	268	155.03602572769
0	24900	268.1	155.08547688948
0	24906	268.2	155.13436187913
0	24912	268.3	155.18361011056
0	24918	268.4	155.23239968363
0	24939	268.5	155.28111103314
0	24945	268.6	155.32940812348
0	24951	268.7	155.37790397979
0	24972	268.8	155.42619661417
0	24978	268.9	155.47500488788
0	24984	269	155.52429454283
0	24990	269.1	155.57369377713
0	24996	269.2	155.62307740352
0	25002	269.3	155.67292252369
0	25008	269.4	155.72214387528
0	25029	269.5	155.77199867045
0	25035	269.6	155.82066402724
0	25041	269.7	155.87023661685
0	25062	269.8	155.91956207521
0	25068	269.9	155.96913503411
0	25074	270	156.01890272999
0	25080	270.1	156.06772697495
0	25115	270.2	156.11647882131
0	25121	270.3	156.16601174584
0	25127	270.4	156.21506259738
0	25148	270.5	156.26387376464
0	25154	270.6	156.31252493356
0	25160	270.7	156.3620376831
0	25181	270.8	156.41100941402
0	25187	270.9	156.45990710907
0	25193	271	156.50851155472
0	25199	271.1	156.55735393388
0	25205	271.2	156.60650467203
0	25211	271.3	156.65505699754
0	25217	271.4	156.70341455467
0	25238	271.5	156.75193401531
0	25244	271.6	156.80095755035
0	25250	271.7	156.84968969335
0	25271	271.8	156.89873868177
0	25277	271.9	156.94859965399
0	25283	272	156.99791729759
0	25289	272.1	157.04660934498
0	25295	272.2	157.09562896916
0	25301	272.3	157.14560744544
0	25307	272.4	157.19469021746
0	25328	272.5	157.24319647246
0	25334	272.6	157.29147685457
0	25340	272.7	157.33983137976
0	25361	272.8	157.38781430663
0	25367	272.9	157.43557686098
0	25373	273	157.4835914563
0	25379	273.1	157.53171922119
0	25385	273.2	157.57975004687
0	25391	273.3	157.62751123331
0	25397	273.4	157.67618515514
0	25418	273.5	157.72469687119
0	25424	273.6	157.77353733209
0	25430	273.7	157.82238659515
0	25451	273.8	157.87108890869
0	25457	273.9	157.91998196935
0	25463	274	157.96963725772
0	25469	274.1	158.01902296748
0	25475	274.2	158.06890765799
0	25481	274.3	158.11787370696
0	25487	274.4	158.16640919665
0	25508	274.5	158.21475180713
0	25514	274.6	158.26350973797
0	25520	274.7	158.31239123156
0	25541	274.8	158.36181642413
0	25547	274.9	158.41100485572
0	25553	275	158.46055376536
0	25559	275.1	158.50944627822
0	25594	275.2	158.55894977882
0	25600	275.3	158.60750374824
0	25606	275.4	158.65606479457
0	25627	275.5	158.70552267413
0	25633	275.6	158.75550650749
0	25639	275.7	158.80401093797
0	25660	275.8	158.85318461008
0	25666	275.9	158.90271576597
0	25672	276	158.95240314494
0	25678	276.1	159.00101099227
0	25684	276.2	159.04964082033
0	25690	276.3	159.09851406889
0	25696	276.4	159.14755084124
0	25717	276.5	159.19707403197
0	25723	276.6	159.24615276946
0	25729	276.7	159.29552336892
0	25750	276.8	159.3452245267
0	25756	276.9	159.39423961906
0	25762	277	159.44367885821
0	25768	277.1	159.49250125864
0	25774	277.2	159.54170056664
0	25780	277.3	159.59093815958
0	25786	277.4	159.63975695986
0	25807	277.5	159.68890394301
0	25813	277.6	159.73745461131
0	25819	277.7	159.78581573661
[...]
9	55304	585.4	1.1376770131908
9	55325	585.5	1.1330512207006
9	55331	585.6	1.1363412627481
9	55337	585.7	1.1342428975793
9	55358	585.8	1.1245490791946
9	55364	585.9	1.1389868459926
9	55370	586	1.130350150471
9	55376	586.1	1.1348743303793
9	55382	586.2	1.1299661713792
9	55388	586.3	1.13747369451
9	55394	586.4	1.1396714744764
9	55415	586.5	1.1245996732757
9	55421	586.6	1.1356429943712
9	55427	586.7	1.1389554457111
9	55448	586.8	1.1284519625734
9	55454	586.9	1.1382718094536
9	55460	587	1.1281749401087
9	55466	587.1	1.1382520675434
9	55472	587.2	1.1325275433426
9	55478	587.3	1.140497638198
9	55484	587.4	1.1247250261439
9	55505	587.5	1.1379736263193
9	55511	587.6	1.1383115367993
9	55517	587.7	1.1351712322121
9	55538	587.8	1.1302231408895
9	55544	587.9	1.1265156946343
9	55550	588	1.1352472576293
9	55556	588.1	1.1365280078859
9	55562	588.2	1.1354480458757
9	55568	588.3	1.1280034484369
9	55574	588.4	1.133735709427
9	55595	588.5	1.1391717757618
9	55601	588.6	1.1383763400413
9	55607	588.7	1.1293443954633
9	55628	588.8	1.1358088334366
9	55634	588.9	1.1295601917208
9	55640	589	1.1377368758736
9	55646	589.1	1.1388520209013
9	55652	589.2	1.1243416905918
9	55658	589.3	1.1340353550494
9	55664	589.4	1.1356341757848
9	55685	589.5	1.1315890696352
9	55691	589.6	1.1434695125291
9	55697	589.7	1.1252905092411
9	55718	589.8	1.1375086150423
9	55724	589.9	1.1379056371394
9	55730	590	1.1345765175331
9	55736	590.1	1.1267330990092
9	55771	590.2	1.1343015853603
9	55777	590.3	1.1407148275669
9	55783	590.4	1.1285538172167
9	55804	590.5	1.1291108154837
9	55810	590.6	1.1353351438486
9	55816	590.7	1.1316935303577
9	55837	590.8	1.1356626978993
9	55843	590.9	1.1355498098907
9	55849	591	1.1306547554553
9	55855	591.1	1.136652635071
9	55861	591.2	1.1359431736479
9	55867	591.3	1.1389953453395
9	55873	591.4	1.130072831167
9	55894	591.5	1.1367753434996
9	55900	591.6	1.1255947787624
9	55906	591.7	1.1392338736524
9	55927	591.8	1.13327725457
9	55933	591.9	1.1304004084259
9	55939	592	1.1326243691511
9	55945	592.1	1.1395429014356
9	55951	592.2	1.1338924344248
9	55957	592.3	1.1370863753698
9	55963	592.4	1.1301233995531
9	55984	592.5	1.1362436409687
9	55990	592.6	1.1353074026749
9	55996	592.7	1.1299030081073
9	56017	592.8	1.1351842479527
9	56023	592.9	1.1302361872486
9	56029	593	1.1345523757197
9	56035	593.1	1.1381529165098
9	56041	593.2	1.1265721438391
9	56047	593.3	1.1373986994532
9	56053	593.4	1.1377552224765
9	56074	593.5	1.136234702505
9	56080	593.6	1.1257556422964
9	56086	593.7	1.1378178461649
9	56107	593.8	1.1279754026225
9	56113	593.9	1.1329207980486
9	56119	594	1.1365635176243
9	56125	594.1	1.1428456076766
9	56131	594.2	1.1253000199901
9	56137	594.3	1.1339307522198
9	56143	594.4	1.1369789046735
9	56164	594.5	1.1329060166304
9	56170	594.6	1.1314290014658
9	56176	594.7	1.1397193481544
9	56197	594.8	1.132722485019
9	56203	594.9	1.1267097979627
9	56209	595	1.1456290161211
9	56215	595.1	1.1271027612001
9	56250	595.2	1.1344710271358
9	56256	595.3	1.1286394729902
9	56262	595.4	1.1353174933847
9	56283	595.5	1.1356465780761
9	56289	595.6	1.1362138676768
9	56295	595.7	1.129268919369
9	56316	595.8	1.1411400566951
9	56322	595.9	1.1279958841315
9	56328	596	1.1412722863791
9	56334	596.1	1.1241188489203
9	56340	596.2	1.1376990464112
9	56346	596.3	1.1391698433493
9	56352	596.4	1.12842619627
9	56373	596.5	1.1333156986134
9	56379	596.6	1.1362972595885
9	56385	596.7	1.1354551108386
9	56406	596.8	1.1296562457861
9	56412	596.9	1.1405398416674
9	56418	597	1.1316599921901
9	56424	597.1	1.1348532129
9	56430	597.2	1.1358551110014
9	56436	597.3	1.1275323942083
9	56442	597.4	1.1338408551112
9	56463	597.5	1.1310454575785
9	56469	597.6	1.1400674458491
9	56475	597.7	1.1376062284244
9	56496	597.8	1.1302983308719
9	56502	597.9	1.1331668939724
9	56508	598	1.1379323857196
9	56514	598.1	1.1243731075593
9	56520	598.2	1.1449824705714
9	56526	598.3	1.1299145422854
9	56532	598.4	1.1339345755785
9	56553	598.5	1.1263216986952
9	56559	598.6	1.1429581793482
9	56565	598.7	1.1297061917261
9	56586	598.8	1.1296750082926
9	56592	598.9	1.1416996791772
9	56598	599	1.1309177884988
9	56604	599.1	1.1308840767225
9	56610	599.2	1.1409856732403
9	56616	599.3	1.1243619461026
9	56622	599.4	1.1450194442362
9	56643	599.5	1.128807012006
9	56649	599.6	1.132374592777
9	56655	599.7	1.1390995349903
9	56676	599.8	1.1284482929973
9	56682	599.9	1.1390830274873
9	56688	600	1.1343546561337
9	56694	600.1	1.1307612772535
9	56729	600.2	1.1284778464602
9	56735	600.3	1.1346439096122
9	56741	600.4	1.1381463592247
9	56762	600.5	1.1283006329253
9	56768	600.6	1.1396457391047
9	56774	600.7	1.1306093930689
9	56795	600.8	1.1366182963707
9	56801	600.9	1.1331776390427
9	56807	601	1.130447192179
9	56813	601.1	1.1351150266387
9	56819	601.2	1.1374248862725
9	56825	601.3	1.1289863696211
9	56831	601.4	1.1345330645426
9	56852	601.5	1.133133438513
9	56858	601.6	1.1401569859883
9	56864	601.7	1.1278748872096
9	56885	601.8	1.138297263026
9	56891	601.9	1.1329914006321
9	56897	602	1.1363640957969
9	56903	602.1	1.1344610639714
9	56909	602.2	1.1367119871726
9	56915	602.3	1.1290270764037
9	56921	602.4	1.1389101062661
9	56942	602.5	1.1256173370325
9	56948	602.6	1.1349778737399
9	56954	602.7	1.1380916891437
9	56975	602.8	1.1368188595709
9	56981	602.9	1.1323202019479
9	56987	603	1.136197447757
9	56993	603.1	1.1234943955099
9	56999	603.2	1.1397948892802
9	57005	603.3	1.1316749817562
9	57011	603.4	1.1371774276118
9	57032	603.5	1.1315413503203
9	57038	603.6	1.1335913032844
9	57044	603.7	1.1317419320969
9	57065	603.8	1.1366980524537
9	57071	603.9	1.136248288749
9	57077	604	1.1336032735415
9	57083	604.1	1.1265935584858
9	57089	604.2	1.1355308238237
9	57095	604.3	1.1393391488078
9	57101	604.4	1.1297702479741
9	57122	604.5	1.1325663166717
9	57128	604.6	1.1410711539097
9	57134	604.7	1.127633339956
9	57155	604.8	1.1352466575192
9	57161	604.9	1.1345560538038
9	57167	605	1.1353042878334
9	57173	605.1	1.1268095048069
9	57208	605.2	1.1359636421945
9	57214	605.3	1.1425144111577
9	57220	605.4	1.1312549371508
9	57241	605.5	1.1314718592657
9	57247	605.6	1.1307162828015
9	57253	605.7	1.1347251923133
9	57274	605.8	1.1385025099529
9	57280	605.9	1.1271750915825
9	57286	606	1.1379502640272
9	57292	606.1	1.1299799867243
9	57298	606.2	1.1333014327422
9	57304	606.3	1.1369929040418
9	57310	606.4	1.1398136051208
9	57331	606.5	1.1283339486191
9	57337	606.6	1.1412247377573
9	57343	606.7	1.1264734537821
9	57364	606.8	1.1392622038009
9	57370	606.9	1.1259041116844
9	57376	607	1.1433949542897
9	57382	607.1	1.1315179686352
9	57388	607.2	1.137623508711
9	57394	607.3	1.1229210822077
9	57400	607.4	1.1342135272042
9	57421	607.5	1.141650873837
9	57427	607.6	1.1354461043051
9	57433	607.7	1.1289382507934
9	57454	607.8	1.1340217674023
9	57460	607.9	1.134588751886
9	57466	608	1.1333751965577
9	57472	608.1	1.1327073062184
9	57478	608.2	1.1295738603646
9	57484	608.3	1.1341798773909
9	57490	608.4	1.1362362453674
9	57511	608.5	1.1313397487473
9	57517	608.6	1.1368230467678
9	57523	608.7	1.1327506467285
9	57544	608.8	1.1352786039953
9	57550	608.9	1.1368162783349
9	57556	609	1.1332641824206
9	57562	609.1	1.1321873518421
9	57568	609.2	1.1379165142818
9	57574	609.3	1.1361106384844
9	57580	609.4	1.1264335680562
9	57601	609.5	1.1363857759594
9	57607	609.6	1.1370057229188
9	57613	609.7	1.1315217176905
9	57634	609.8	1.1390180335539
9	57640	609.9	1.1286041519227
9	57646	610	1.13192985916
9	57652	610.1	1.1336559540598
9	57687	610.2	1.1392850794792
9	57693	610.3	1.1320490919716
9	57699	610.4	1.1325444469109
9	57720	610.5	1.1280781343776
9	57726	610.6	1.1409586277721
9	57732	610.7	1.1328988085255
9	57753	610.8	1.1272667755444
9	57759	610.9	1.1449884396146
9	57765	611	1.1351729036753
9	57771	611.1	1.1315774038241
9	57777	611.2	1.1355643178859
9	57783	611.3	1.1241499376409
9	57789	611.4	1.1385680718164
9	57810	611.5	1.1302625358838
9	57816	611.6	1.1322464666339
9	57822	611.7	1.1332083629943
9	57843	611.8	1.1416773166974
9	57849	611.9	1.1348130042984
9	57855	612	1.1296603306329
9	57861	612.1	1.1343240258759
9	57867	612.2	1.1296572228859
9	57873	612.3	1.1393557678773
9	57879	612.4	1.1271913381181
9	57900	612.5	1.1366683296398
9	57906	612.6	1.1322662853849
9	57912	612.7	1.1370861135915
9	57933	612.8	1.1321214771226
9	57939	612.9	1.1321256631421
9	57945	613	1.1346854176705
9	57951	613.1	1.1367808872067
9	57957	613.2	1.1292851718602
9	57963	613.3	1.1426082284896
9	57969	613.4	1.1335696448133
9	57990	613.5	1.1290481155342
9	57996	613.6	1.1310715379655
9	58002	613.7	1.1427658177135
9	58023	613.8	1.128568277041
9	58029	613.9	1.1304636562344
9	58035	614	1.1388127629204
9	58041	614.1	1.1352368228675
9	58047	614.2	1.1273630858503
9	58053	614.3	1.1330272382252
9	58059	614.4	1.1372009457039
9	58080	614.5	1.130951962257
9	58086	614.6	1.1406573555484
9	58092	614.7	1.1308295714201
9	58113	614.8	1.1319096117033
9	58119	614.9	1.1381204995799
9	58125	615	1.1323932060683
9	58131	615.1	1.1278772822387
9	58166	615.2	1.1427846343212
9	58172	615.3	1.1347036214227
9	58178	615.4	1.1344118333767
9	58199	615.5	1.1333631052272
9	58205	615.6	1.1336688866587
9	58211	615.7	1.1319362851157
9	58232	615.8	1.1298772602856
9	58238	615.9	1.1365024859278
9	58244	616	1.1299955209433
9	58250	616.1	1.1443390361377
9	58256	616.2	1.1226037595516
9	58262	616.3	1.1432914433386
9	58268	616.4	1.1312105602692
9	58289	616.5	1.1285371950187
9	58295	616.6	1.1360972301286
9	58301	616.7	1.140429960043
9	58322	616.8	1.1242611904039
9	58328	616.9	1.1344613532239
9	58334	617	1.1390839528495
9	58340	617.1	1.1346042948249
9	58346	617.2	1.1294156260885
9	58352	617.3	1.1358275198636
9	58358	617.4	1.1407477609162
9	58379	617.5	1.1338446460752
9	58385	617.6	1.1247431555619
9	58391	617.7	1.1385980241334
9	58412	617.8	1.1374047235627
9	58418	617.9	1.1246835379918
9	58424	618	1.1357767161878
9	58430	618.1	1.1381503522858
9	58436	618.2	1.1369389008176
9	58442	618.3	1.1351252664565
9	58448	618.4	1.1268025105775
9	58469	618.5	1.1340022027611
9	58475	618.6	1.1323971104567
9	58481	618.7	1.1349361509608
9	58502	618.8	1.1362817224223
9	58508	618.9	1.1380950977171
9	58514	619	1.1308910331095
9	58520	619.1	1.1310129673992
9	58526	619.2	1.1348726517487
9	58532	619.3	1.1367805034304
9	58538	619.4	1.1346938389015
9	58559	619.5	1.1331569330501
9	58565	619.6	1.1369793984854
9	58571	619.7	1.1264220262311
9	58592	619.8	1.1379637244165
9	58598	619.9	1.1345608972979
9	58604	620	1.1310930897236
9	58610	620.1	1.1328783153909
9	58645	620.2	1.1414429849026
9	58651	620.3	1.1256299376539
9	58657	620.4	1.1338192014955
9	58678	620.5	1.1369530972091
9	58684	620.6	1.1321863266328
9	58690	620.7	1.1348052696212
9	58711	620.8	1.1400152851058
9	58717	620.9	1.1328601748319
9	58723	621	1.1279312017035
9	58729	621.1	1.137963312538
9	58735	621.2	1.137234994093
9	58741	621.3	1.1234393475101
9	58747	621.4	1.1333755116348
9	58768	621.5	1.1378856266594
9	58774	621.6	1.1352875165252
9	58780	621.7	1.1379255180796
9	58801	621.8	1.124340091241
9	58807	621.9	1.1366207355548
9	58813	622	1.1377106678255
9	58819	622.1	1.135477125602
9	58825	622.2	1.1325247459714
9	58831	622.3	1.127161770081
9	58837	622.4	1.1425436402257
9	58858	622.5	1.1339228362547
9	58864	622.6	1.1316125045185
9	58870	622.7	1.1344462250409
9	58891	622.8	1.1331218043524
9	58897	622.9	1.1319425028488
9	58903	623	1.1302630819976
9	58909	623.1	1.1331446528483
9	58915	623.2	1.1336563311094
9	58921	623.3	1.145393661857
9	58927	623.4	1.1236415145919
9	58948	623.5	1.1371189075805
9	58954	623.6	1.1360976527585
9	58960	623.7	1.1309615286021
9	58981	623.8	1.1347163418828
9	58987	623.9	1.1384079629648
9	58993	624	1.1355358122456
9	58999	624.1	1.1327480492174
9	59005	624.2	1.1335991228452
9	59011	624.3	1.1295291661623
9	59017	624.4	1.1376782830191
9	59038	624.5	1.1309728136327
9	59044	624.6	1.134806804186
9	59050	624.7	1.1328208060722
9	59071	624.8	1.1382858014169
9	59077	624.9	1.125790209111
9	59083	625	1.1351949159686
9	59089	625.1	1.1420193990198
9	59124	625.2	1.1240764742453
9	59130	625.3	1.1404848889522
9	59136	625.4	1.126281503087
9	59157	625.5	1.1361892687622
9	59163	625.6	1.1364672366425
9	59169	625.7	1.1304364421341
9	59190	625.8	1.1328122517719
9	59196	625.9	1.1422292482513
9	59202	626	1.1302672739451
9	59208	626.1	1.1342231158318
9	59214	626.2	1.1301332806415
9	59220	626.3	1.1317730047524
9	59226	626.4	1.1393146490538
9	59247	626.5	1.1331686435047
9	59253	626.6	1.1355670014732
9	59259	626.7	1.1329965508347
9	59280	626.8	1.133453571486
9	59286	626.9	1.1310987975786
9	59292	627	1.1309836246575
9	59298	627.1	1.1356129127822
9	59304	627.2	1.1321891338065
9	59310	627.3	1.1437270101064
9	59316	627.4	1.1338110065066
9	59337	627.5	1.1311873119857
9	59343	627.6	1.1336077807283
9	59349	627.7	1.1273292778413
9	59370	627.8	1.1360906308001
9	59376	627.9	1.1314481887056
9	59382	628	1.1412587731511
9	59388	628.1	1.1308926331411
9	59394	628.2	1.1302461254668
9	59400	628.3	1.1405636027018
9	59406	628.4	1.1359490007505
9	59427	628.5	1.1329378215384
9	59433	628.6	1.1339717440952
9	59439	628.7	1.1261898580211
9	59460	628.8	1.1351517948037
9	59466	628.9	1.136639820752
9	59472	629	1.1338994034172
9	59478	629.1	1.1386742383048
9	59484	629.2	1.13194387485
9	59490	629.3	1.1355068366979
9	59496	629.4	1.1314257615383
9	59517	629.5	1.13205161115
9	59523	629.6	1.1388680647623
9	59529	629.7	1.1260223764465
9	59550	629.8	1.1380014327607
9	59556	629.9	1.137195530014
9	59562	630	1.1289358148669
9	59568	630.1	1.1412202183508
9	59603	630.2	1.1288394374247
9	59609	630.3	1.1388369189828
9	59615	630.4	1.1262104732929
9	59636	630.5	1.1358506549594
9	59642	630.6	1.1329025506707
9	59648	630.7	1.1404803484541
9	59669	630.8	1.132314615658
9	59675	630.9	1.1316349708928
9	59681	631	1.128791573576
9	59687	631.1	1.1375777924248
9	59693	631.2	1.1350942378271
9	59699	631.3	1.1350534209469
9	59705	631.4	1.1352697578968
9	59726	631.5	1.1363313147512
9	59732	631.6	1.131715097003
9	59738	631.7	1.1334223102421
9	59759	631.8	1.127804005274
9	59765	631.9	1.1335964618196
9	59771	632	1.1390144714
9	59777	632.1	1.1383565799483
9	59783	632.2	1.1285800481941
9	59789	632.3	1.1286395896593
9	59795	632.4	1.135785958871
9	59816	632.5	1.1419498417461
9	59822	632.6	1.1266438962507
9	59828	632.7	1.1348971671797
9	59849	632.8	1.1306544989244
9	59855	632.9	1.1384119132163
9	59861	633	1.13675018744
9	59867	633.1	1.1264495484994
9	59873	633.2	1.1348588191161
9	59879	633.3	1.1350828539448
9	59885	633.4	1.1417104074199
9	59906	633.5	1.1293817646333
9	59912	633.6	1.1373013288484
9	59918	633.7	1.1300598816703
9	59939	633.8	1.12846954833
9	59945	633.9	1.1427385541935
9	59951	634	1.1311375467159
9	59957	634.1	1.1349453153286
9	59963	634.2	1.1377407297247
9	59969	634.3	1.1324708082859
9	59975	634.4	1.1306317052055
9	59996	634.5	1.1294842924429
9	60002	634.6	1.1404822199424
9	60008	634.7	1.1295473736923
9	60029	634.8	1.1366064111296
9	60035	634.9	1.1317090049984
9	60041	635	1.135458827342
9	60047	635.1	1.1301946307935
9	60082	635.2	1.1386443405289
9	60088	635.3	1.1265553805233
9	60094	635.4	1.1392522397301
9	60115	635.5	1.1380074840623
9	60121	635.6	1.1280090571218
9	60127	635.7	1.1372440443005
9	60148	635.8	1.1381630111243
9	60154	635.9	1.1307750241401
9	60160	636	1.1274567245165
9	60166	636.1	1.1382537093429
9	60172	636.2	1.1348513384715
9	60178	636.3	1.1277074981319
9	60184	636.4	1.1372079971271
9	60205	636.5	1.1372960012947
9	60211	636.6	1.1314209062827
9	60217	636.7	1.135492260658
9	60238	636.8	1.1351954504216
9	60244	636.9	1.1304627559589
9	60250	637	1.1292287337565
9	60256	637.1	1.1410713979665
9	60262	637.2	1.1381138761412
9	60268	637.3	1.1302753968113
9	60274	637.4	1.1356610060308
9	60295	637.5	1.1325616741206
9	60301	637.6	1.1318952342531
9	60307	637.7	1.1393209498189
9	60328	637.8	1.1338621821583
9	60334	637.9	1.1282558834024
9	60340	638	1.1300784732427
9	60346	638.1	1.1387253037825
9	60352	638.2	1.1373972749447
9	60358	638.3	1.1249096791348
9	60364	638.4	1.1371819564367
9	60385	638.5	1.1339758210888
9	60391	638.6	1.1317915354117
9	60397	638.7	1.1372391906908
9	60418	638.8	1.1291814165338
9	60424	638.9	1.1411133822352
9	60430	639	1.1261865670445
9	60436	639.1	1.1427119555365
9	60442	639.2	1.134672751788
9	60448	639.3	1.1325297222567
9	60454	639.4	1.1338944612129
9	60475	639.5	1.1317387100715
9	60481	639.6	1.1384327940544
9	60487	639.7	1.1244331998847
9	60508	639.8	1.1329132594152
9	60514	639.9	1.1440309164488
9	60520	640	1.127780647834
9	60526	640.1	1.1338569738474
9	60561	640.2	1.1381250237629
9	60567	640.3	1.126476170759
9	60573	640.4	1.1367216351038
9	60594	640.5	1.1388145234535
9	60600	640.6	1.1298234320812
9	60606	640.7	1.137530086956
9	60627	640.8	1.1357143326719
9	60633	640.9	1.1316940841648
9	60639	641	1.1315989952043
9	60645	641.1	1.1325046307729
9	60651	641.2	1.1315318561775
9	60657	641.3	1.1357327409721
9	60663	641.4	1.1384567666632
9	60684	641.5	1.1335726428838
9	60690	641.6	1.1312039487429
9	60696	641.7	1.1303129447252
9	60717	641.8	1.1376959215454
9	60723	641.9	1.1309438401058
9	60729	642	1.1361242912666
9	60735	642.1	1.1329358535918
9	60741	642.2	1.1312117546593
9	60747	642.3	1.1389043717474
9	60753	642.4	1.1307227710825
9	60774	642.5	1.1321124315744
9	60780	642.6	1.1360240537239
9	60786	642.7	1.1411555975584
9	60807	642.8	1.1288420831191
9	60813	642.9	1.1325393083468
9	60819	643	1.1376562090752
9	60825	643.1	1.1300470199622
9	60831	643.2	1.1301935672305
9	60837	643.3	1.1374067006284
9	60843	643.4	1.1411740305751
9	60864	643.5	1.1279449010397
9	60870	643.6	1.1367529000351
9	60876	643.7	1.130885911932
9	60897	643.8	1.1315205503715
9	60903	643.9	1.1413650552012
9	60909	644	1.1351518202365
9	60915	644.1	1.1222892014554
9	60921	644.2	1.1439016008557
9	60927	644.3	1.1255261736823
9	60933	644.4	1.1411372538151
9	60954	644.5	1.130246466347
9	60960	644.6	1.1367912469547
9	60966	644.7	1.1358279831227
9	60987	644.8	1.1305634647733
9	60993	644.9	1.1299572081337
9	60999	645	1.1339861522789
9	61005	645.1	1.1343523863705
9	61040	645.2	1.131750000787
9	61046	645.3	1.1417254913896
9	61052	645.4	1.132293825861
9	61073	645.5	1.1362964638962
9	61079	645.6	1.132400710111
9	61085	645.7	1.1352132930998
9	61106	645.8	1.1363607553011
9	61112	645.9	1.1231724563221
9	61118	646	1.1355922307679
9	61124	646.1	1.1395621948849
9	61130	646.2	1.1297922800337
9	61136	646.3	1.141889131032
9	61142	646.4	1.1247451406491
9	61163	646.5	1.1366425526153
9	61169	646.6	1.1388901636103
9	61175	646.7	1.1308657538718
9	61196	646.8	1.1374207397011
9	61202	646.9	1.1287004592348
9	61208	647	1.1371271863935
9	61214	647.1	1.1290106015689
9	61220	647.2	1.1308086613226
9	61226	647.3	1.1447713918502
9	61232	647.4	1.1304754802444
9	61253	647.5	1.1322964530258
9	61259	647.6	1.1307410540059
9	61265	647.7	1.1405622197482
9	61286	647.8	1.133686299545
9	61292	647.9	1.1347932166171
9	61298	648	1.1335753440592
9	61304	648.1	1.1329623286783
9	61310	648.2	1.1251690570441
9	61316	648.3	1.1455657931284
9	61322	648.4	1.1312867189392
9	61343	648.5	1.1320957074555
9	61349	648.6	1.1276164905022
9	61355	648.7	1.1419336837047
9	61376	648.8	1.1330643784916
9	61382	648.9	1.1319494234293
9	61388	649	1.139430465217
9	61394	649.1	1.133805855454
9	61400	649.2	1.1328932845109
9	61406	649.3	1.133092743026
9	61412	649.4	1.1308195676348
9	61433	649.5	1.1336754385608
9	61439	649.6	1.1310593088384
9	61445	649.7	1.1376469457664
9	61466	649.8	1.1307722989593
9	61472	649.9	1.1337533136364
9	61478	650	1.1306596198815
9	61484	650.1	1.1415375784327
9	61519	650.2	1.1336032519001
9	61525	650.3	1.1298022703605
9	61531	650.4	1.1378078641108
9	61552	650.5	1.1283356792994
9	61558	650.6	1.1429749710973
9	61564	650.7	1.126612155087
9	61585	650.8	1.1405295026648
9	61591	650.9	1.1291570240303
9	61597	651	1.1344165329245
9	61603	651.1	1.1317632890206
9	61609	651.2	1.1352474497875
9	61615	651.3	1.1340990227486
9	61621	651.4	1.134250202367
9	61642	651.5	1.1305864371451
9	61648	651.6	1.1401149524475
9	61654	651.7	1.1353471441735
9	61675	651.8	1.1359124218859
9	61681	651.9	1.1326344539886
9	61687	652	1.1277156727222
9	61693	652.1	1.1328808814378
9	61699	652.2	1.1349156894727
9	61705	652.3	1.1408487601344
9	61711	652.4	1.1254064217762
9	61732	652.5	1.1369395160367
9	61738	652.6	1.1373272353256

