version 2
run General-0-20180809-16:44:45-22429
attr configname General
attr datetime 20180809-16:44:45
attr experiment General
attr inifile omnetpp.ini
attr iterationvars ""
attr iterationvarsf ""
attr measurement ""
attr network veinsbdi.LightJasonScenario
attr processid 22429
attr repetition 0
attr replication #0
attr resultdir results
attr runnumber 0
attr seedset 0
param *.playgroundSizeX 1000m
param *.playgroundSizeY 1000m
param *.playgroundSizeZ 50m
param *.*.updateInterval 0.1s
param *.manager.host "\"localhost\""
param *.manager.port 9999
param *.manager.autoShutdown false
param *.manager.moduleType "\"org.car2x.veins.nodes.Car\""
param *.manager.moduleName "\"node\""
param *.manager.moduleDisplayString "\"\""
param *.manager.launchConfig "xmldoc(\"demo.launchd.xml\")"
param *.connectionManager.pMax 20mW
param *.connectionManager.sat -89dBm
param *.connectionManager.alpha 2.0
param *.connectionManager.carrierFrequency "5.890e9 Hz"
param *.connectionManager.sendDirect true
param *.connectionManager.maxInterfDist 2600m
param *.node[*].nicType "\"Nic80211p\""
param *.**.nic.mac1609_4.txPower 20mW
param *.**.nic.mac1609_4.bitrate 18Mbps
param *.**.nic.phy80211p.sensitivity -89dBm
param *.**.nic.phy80211p.useThermalNoise true
param *.**.nic.phy80211p.thermalNoise -110dBm
param *.**.nic.phy80211p.decider "xmldoc(\"config.xml\")"
param *.**.nic.phy80211p.analogueModels "xmldoc(\"config.xml\")"
param *.**.nic.phy80211p.usePropagationDelay true
param *.node[*].applType "\"veinsbdi.AgentAppl\""
param *.node[*].appl.dataPriority 2
param *.node[*].veinsmobilityType "\"org.car2x.veins.modules.mobility.traci.TraCIMobility\""
param *.node[*].veinsmobility.x 0
param *.node[*].veinsmobility.y 0
param *.node[*].veinsmobility.z 0
param **.debug true
param **.coreDebug true

vector 0 LightJasonScenario.node[0].veinsmobility posx ETV
vector 1 LightJasonScenario.node[0].veinsmobility posy ETV
vector 2 LightJasonScenario.node[1].veinsmobility posx ETV
vector 3 LightJasonScenario.node[1].veinsmobility posy ETV
vector 4 LightJasonScenario.node[0].veinsmobility speed ETV
vector 5 LightJasonScenario.node[1].veinsmobility speed ETV
vector 6 LightJasonScenario.node[0].veinsmobility acceleration ETV
vector 7 LightJasonScenario.node[0].veinsmobility co2emission ETV
vector 8 LightJasonScenario.node[1].veinsmobility acceleration ETV
vector 9 LightJasonScenario.node[1].veinsmobility co2emission ETV
0	203	10.1	27.1
0	207	10.2	27.1
0	213	10.3	27.100911073308
0	219	10.4	27.102580128556
0	240	10.5	27.104905698165
0	246	10.6	27.10780862858
0	252	10.7	27.111346500138
0	273	10.8	27.115622730472
0	279	10.9	27.12066348164
0	285	11	27.126652844462
0	291	11.1	27.133356353219
0	297	11.2	27.14050790737
0	303	11.3	27.147666395918
0	309	11.4	27.155237501228
0	330	11.5	27.163303616563
0	336	11.6	27.171232733917
0	342	11.7	27.179709953782
0	363	11.8	27.18826574354
0	369	11.9	27.19729370749
0	375	12	27.20588593871
0	381	12.1	27.215276228363
0	387	12.2	27.224361387139
0	393	12.3	27.233736133856
0	399	12.4	27.242909514444
0	420	12.5	27.252302178811
0	426	12.6	27.261676523877
0	432	12.7	27.270969919966
0	453	12.8	27.280390286368
0	459	12.9	27.290004592928
0	465	13	27.299480976057
0	471	13.1	27.309798497777
0	477	13.2	27.320405618862
0	483	13.3	27.331733241431
0	489	13.4	27.342955486733
0	510	13.5	27.3548529065
0	516	13.6	27.367547499007
0	522	13.7	27.380755880007
0	543	13.8	27.394739748712
0	549	13.9	27.409390135339
0	555	14	27.424460788498
0	561	14.1	27.439177543951
0	567	14.2	27.454219374419
0	573	14.3	27.469341609695
0	579	14.4	27.484110322103
0	600	14.5	27.499730113984
0	606	14.6	27.514895192261
0	612	14.7	27.530080560491
0	633	14.8	27.546009564341
0	639	14.9	27.562401339937
0	645	15	27.578667086323
0	651	15.1	27.59502108671
0	686	15.2	27.611887516256
0	692	15.3	27.629696307663
0	698	15.4	27.64755368799
0	719	15.5	27.664972644414
0	725	15.6	27.682412415359
0	731	15.7	27.699899597988
0	752	15.8	27.716893831269
0	758	15.9	27.734015289052
0	764	16	27.751515193953
0	770	16.1	27.769303052596
0	776	16.2	27.78715564608
0	782	16.3	27.805501228138
0	788	16.4	27.823834681712
0	809	16.5	27.84269233267
0	815	16.6	27.861382465404
0	821	16.7	27.879648241562
0	842	16.8	27.897920227417
0	848	16.9	27.91717185581
0	854	17	27.936489215063
0	860	17.1	27.955796084869
0	866	17.2	27.974645037177
0	872	17.3	27.993176699282
0	878	17.4	28.011943924829
0	899	17.5	28.031627578337
0	905	17.6	28.051634493024
0	911	17.7	28.072611426203
0	932	17.8	28.093925792999
0	938	17.9	28.1147707797
0	944	18	28.136076599697
0	950	18.1	28.15766107939
0	956	18.2	28.179212567303
0	962	18.3	28.200443341377
0	968	18.4	28.221296762241
0	989	18.5	28.242824949906
0	995	18.6	28.264505354272
0	1001	18.7	28.285888104793
0	1022	18.8	28.307507401871
0	1028	18.9	28.328751614515
0	1034	19	28.349614090741
0	1040	19.1	28.371351898237
0	1046	19.2	28.393673127887
0	1052	19.3	28.416980322484
0	1058	19.4	28.440024003963
0	1079	19.5	28.463096924234
0	1085	19.6	28.485907765321
0	1091	19.7	28.509321511162
0	1112	19.8	28.533138525876
0	1118	19.9	28.557126308363
1	203	10.1	29.95
1	207	10.2	29.95
1	213	10.3	29.95
1	219	10.4	29.95
1	240	10.5	29.95
1	246	10.6	29.95
1	252	10.7	29.95
1	273	10.8	29.95
1	279	10.9	29.95
1	285	11	29.95
1	291	11.1	29.95
1	297	11.2	29.95
1	303	11.3	29.95
1	309	11.4	29.95
1	330	11.5	29.95
1	336	11.6	29.95
1	342	11.7	29.95
1	363	11.8	29.95
1	369	11.9	29.95
1	375	12	29.95
1	381	12.1	29.95
1	387	12.2	29.95
1	393	12.3	29.95
1	399	12.4	29.95
1	420	12.5	29.95
1	426	12.6	29.95
1	432	12.7	29.95
1	453	12.8	29.95
1	459	12.9	29.95
1	465	13	29.95
1	471	13.1	29.95
1	477	13.2	29.95
1	483	13.3	29.95
1	489	13.4	29.95
1	510	13.5	29.95
1	516	13.6	29.95
1	522	13.7	29.95
1	543	13.8	29.95
1	549	13.9	29.95
1	555	14	29.95
1	561	14.1	29.95
1	567	14.2	29.95
1	573	14.3	29.95
1	579	14.4	29.95
1	600	14.5	29.95
1	606	14.6	29.95
1	612	14.7	29.95
1	633	14.8	29.95
1	639	14.9	29.95
1	645	15	29.95
1	651	15.1	29.95
1	686	15.2	29.95
1	692	15.3	29.95
1	698	15.4	29.95
1	719	15.5	29.95
1	725	15.6	29.95
1	731	15.7	29.95
1	752	15.8	29.95
1	758	15.9	29.95
1	764	16	29.95
1	770	16.1	29.95
1	776	16.2	29.95
1	782	16.3	29.95
1	788	16.4	29.95
1	809	16.5	29.95
1	815	16.6	29.95
1	821	16.7	29.95
1	842	16.8	29.95
1	848	16.9	29.95
1	854	17	29.95
1	860	17.1	29.95
1	866	17.2	29.95
1	872	17.3	29.95
1	878	17.4	29.95
1	899	17.5	29.95
1	905	17.6	29.95
1	911	17.7	29.95
1	932	17.8	29.95
1	938	17.9	29.95
1	944	18	29.95
1	950	18.1	29.95
1	956	18.2	29.95
1	962	18.3	29.95
1	968	18.4	29.95
1	989	18.5	29.95
1	995	18.6	29.95
1	1001	18.7	29.95
1	1022	18.8	29.95
1	1028	18.9	29.95
1	1034	19	29.95
1	1040	19.1	29.95
1	1046	19.2	29.95
1	1052	19.3	29.95
1	1058	19.4	29.95
1	1079	19.5	29.95
1	1085	19.6	29.95
1	1091	19.7	29.95
1	1112	19.8	29.95
1	1118	19.9	29.95
2	203	10.1	27.1
2	207	10.2	27.1
2	213	10.3	27.10094511865
2	219	10.4	27.102751124482
2	240	10.5	27.105387994562
2	246	10.6	27.108826697708
2	252	10.7	27.113077353067
2	273	10.8	27.117988871687
2	279	10.9	27.123641709812
2	285	11	27.129701265795
2	291	11.1	27.136080518654
2	297	11.2	27.143176820319
2	303	11.3	27.150632117514
2	309	11.4	27.158640218334
2	330	11.5	27.167136618884
2	336	11.6	27.175754035797
2	342	11.7	27.18530313437
2	363	11.8	27.195765103646
2	369	11.9	27.207206854523
2	375	12	27.218815985557
2	381	12.1	27.230646959834
2	387	12.2	27.242607921966
2	393	12.3	27.254590265755
2	399	12.4	27.26677345098
2	420	12.5	27.279495156843
2	426	12.6	27.29243633353
2	432	12.7	27.306259235793
2	453	12.8	27.320442217039
2	459	12.9	27.335481844999
2	465	13	27.350576804041
2	471	13.1	27.366149914755
2	477	13.2	27.382308363528
2	483	13.3	27.399202256689
2	489	13.4	27.416321916164
2	510	13.5	27.433985425302
2	516	13.6	27.452080500493
2	522	13.7	27.471156785885
2	543	13.8	27.490615435777
2	549	13.9	27.510461989946
2	555	14	27.530691610116
2	561	14.1	27.550977482211
2	567	14.2	27.571581534009
2	573	14.3	27.592826077904
2	579	14.4	27.614633589847
2	600	14.5	27.636743470594
2	606	14.6	27.659793125874
2	612	14.7	27.683176014444
2	633	14.8	27.70688826514
2	639	14.9	27.731390133274
2	645	15	27.756763075109
2	651	15.1	27.782820588595
2	686	15.2	27.809514391308
2	692	15.3	27.836637997245
2	698	15.4	27.864323001668
2	719	15.5	27.892019632259
2	725	15.6	27.920614218044
2	731	15.7	27.94999992707
2	752	15.8	27.980224326585
2	758	15.9	28.010795617778
2	764	16	28.042113617369
2	770	16.1	28.073965306188
2	776	16.2	28.106572569418
2	782	16.3	28.140020863063
2	788	16.4	28.174358781568
2	809	16.5	28.20904037048
2	815	16.6	28.244583776444
2	821	16.7	28.280930600051
2	842	16.8	28.317908698492
2	848	16.9	28.355065803702
2	854	17	28.393125807641
2	860	17.1	28.431347866673
2	866	17.2	28.470473827304
2	872	17.3	28.50962332847
2	878	17.4	28.549304178438
2	899	17.5	28.589008267315
2	905	17.6	28.629107510674
2	911	17.7	28.669467490451
2	932	17.8	28.71078828244
2	938	17.9	28.752826267469
2	944	18	28.795744055933
2	950	18.1	28.839365704199
2	956	18.2	28.883868624749
2	962	18.3	28.929053562127
2	968	18.4	28.974824236516
2	989	18.5	29.021530763404
2	995	18.6	29.068544818173
2	1001	18.7	29.115992271494
2	1022	18.8	29.164174335323
2	1028	18.9	29.212833151099
2	1034	19	29.26239802637
2	1040	19.1	29.312386955145
2	1046	19.2	29.362446587722
2	1052	19.3	29.413187651345
2	1058	19.4	29.464261304591
2	1079	19.5	29.516203159975
2	1085	19.6	29.568428688161
2	1091	19.7	29.621364810257
2	1112	19.8	29.675117740989
2	1118	19.9	29.729284158787
3	203	10.1	26.65
3	207	10.2	26.65
3	213	10.3	26.65
3	219	10.4	26.65
3	240	10.5	26.65
3	246	10.6	26.65
3	252	10.7	26.65
3	273	10.8	26.65
3	279	10.9	26.65
3	285	11	26.65
3	291	11.1	26.65
3	297	11.2	26.65
3	303	11.3	26.65
3	309	11.4	26.65
3	330	11.5	26.65
3	336	11.6	26.65
3	342	11.7	26.65
3	363	11.8	26.65
3	369	11.9	26.65
3	375	12	26.65
3	381	12.1	26.65
3	387	12.2	26.65
3	393	12.3	26.65
3	399	12.4	26.65
3	420	12.5	26.65
3	426	12.6	26.65
3	432	12.7	26.65
3	453	12.8	26.65
3	459	12.9	26.65
3	465	13	26.65
3	471	13.1	26.65
3	477	13.2	26.65
3	483	13.3	26.65
3	489	13.4	26.65
3	510	13.5	26.65
3	516	13.6	26.65
3	522	13.7	26.65
3	543	13.8	26.65
3	549	13.9	26.65
3	555	14	26.65
3	561	14.1	26.65
3	567	14.2	26.65
3	573	14.3	26.65
3	579	14.4	26.65
3	600	14.5	26.65
3	606	14.6	26.65
3	612	14.7	26.65
3	633	14.8	26.65
3	639	14.9	26.65
3	645	15	26.65
3	651	15.1	26.65
3	686	15.2	26.65
3	692	15.3	26.65
3	698	15.4	26.65
3	719	15.5	26.65
3	725	15.6	26.65
3	731	15.7	26.65
3	752	15.8	26.65
3	758	15.9	26.65
3	764	16	26.65
3	770	16.1	26.65
3	776	16.2	26.65
3	782	16.3	26.65
3	788	16.4	26.65
3	809	16.5	26.65
3	815	16.6	26.65
3	821	16.7	26.65
3	842	16.8	26.65
3	848	16.9	26.65
3	854	17	26.65
3	860	17.1	26.65
3	866	17.2	26.65
3	872	17.3	26.65
3	878	17.4	26.65
3	899	17.5	26.65
3	905	17.6	26.65
3	911	17.7	26.65
3	932	17.8	26.65
3	938	17.9	26.65
3	944	18	26.65
3	950	18.1	26.65
3	956	18.2	26.65
3	962	18.3	26.65
3	968	18.4	26.65
3	989	18.5	26.65
3	995	18.6	26.65
3	1001	18.7	26.65
3	1022	18.8	26.65
3	1028	18.9	26.65
3	1034	19	26.65
3	1040	19.1	26.65
3	1046	19.2	26.65
3	1052	19.3	26.65
3	1058	19.4	26.65
3	1079	19.5	26.65
3	1085	19.6	26.65
3	1091	19.7	26.65
3	1112	19.8	26.65
3	1118	19.9	26.65
4	207	10.2	0.0091107330754166
4	213	10.3	0.016690552483413
4	219	10.4	0.023255696094237
4	240	10.5	0.029029304150805
4	246	10.6	0.03537871557619
4	252	10.7	0.042762303344666
4	273	10.8	0.050407511679964
4	279	10.9	0.059893628218432
4	285	11	0.067035087566372
4	291	11.1	0.071515541510806
4	297	11.2	0.071584885480419
4	303	11.3	0.075711053096106
4	309	11.4	0.080661153356789
4	330	11.5	0.079291173534917
4	336	11.6	0.084772198652189
4	342	11.7	0.085557897575313
4	363	11.8	0.090279639508776
4	369	11.9	0.085922312193984
4	375	12	0.093902896530688
4	381	12.1	0.090851587764681
4	387	12.2	0.093747467164411
4	393	12.3	0.091733805876919
4	399	12.4	0.0939266436696
4	420	12.5	0.093743450664677
4	426	12.6	0.092933960890858
4	432	12.7	0.09420366402226
4	453	12.8	0.096143065598788
4	459	12.9	0.094763831292274
4	465	13	0.10317521719587
4	471	13.1	0.10607121085491
4	477	13.2	0.11327622568677
4	483	13.3	0.11222245301795
4	489	13.4	0.11897419766732
4	510	13.5	0.12694592506834
4	516	13.6	0.1320838100065
4	522	13.7	0.13983868704969
4	543	13.8	0.14650386626692
4	549	13.9	0.15070653159613
4	555	14	0.14716755452542
4	561	14.1	0.15041830468201
4	567	14.2	0.15122235275432
4	573	14.3	0.14768712408118
4	579	14.4	0.15619791880808
4	600	14.5	0.15165078277909
4	606	14.6	0.15185368229611
4	612	14.7	0.15929003850417
4	633	14.8	0.16391775595117
4	639	14.9	0.16265746386814
4	645	15	0.16354000386758
4	651	15.1	0.16866429545427
4	686	15.2	0.17808791407127
4	692	15.3	0.17857380327396
4	698	15.4	0.17418956423504
4	719	15.5	0.17439770945091
4	725	15.6	0.17487182629504
4	731	15.7	0.16994233281095
4	752	15.8	0.17121457782783
4	758	15.9	0.17499904900765
4	764	16	0.1778785864308
4	770	16.1	0.17852593484078
4	776	16.2	0.18345582057815
4	782	16.3	0.18333453574427
4	788	16.4	0.18857650957279
4	809	16.5	0.18690132734691
4	815	16.6	0.18265776157588
4	821	16.7	0.18271985855512
4	842	16.8	0.19251628392701
4	848	16.9	0.19317359252809
4	854	17	0.19306869806232
4	860	17.1	0.18848952307808
4	866	17.2	0.18531662104977
4	872	17.3	0.18767225547321
4	878	17.4	0.1968365350794
4	899	17.5	0.20006914687086
4	905	17.6	0.20976933178585
4	911	17.7	0.21314366796379
4	932	17.8	0.20844986700662
4	938	17.9	0.21305819997191
4	944	18	0.21584479692834
4	950	18.1	0.21551487913448
4	956	18.2	0.21230774073721
4	962	18.3	0.20853420864418
4	968	18.4	0.21528187664668
4	989	18.5	0.21680404366203
4	995	18.6	0.21382750520226
4	1001	18.7	0.21619297078787
4	1022	18.8	0.21244212643918
4	1028	18.9	0.20862476225919
4	1034	19	0.21737807495961
4	1040	19.1	0.22321229649917
4	1046	19.2	0.23307194597297
4	1052	19.3	0.2304368147857
4	1058	19.4	0.23072920270706
4	1079	19.5	0.22810841087461
4	1085	19.6	0.23413745840988
4	1091	19.7	0.23817014713515
4	1112	19.8	0.23987782487273
4	1118	19.9	0.24740371796395
5	207	10.2	0.0094511864976957
5	213	10.3	0.018060058325773
5	219	10.4	0.026368700792828
5	240	10.5	0.0343870314683
5	246	10.6	0.042506553588625
5	252	10.7	0.049115186191958
5	273	10.8	0.056528381252656
5	279	10.9	0.060595559827488
5	285	11	0.063792528596133
5	291	11.1	0.070963016653435
5	297	11.2	0.074552971946793
5	303	11.3	0.080081008200484
5	309	11.4	0.084964005499895
5	330	11.5	0.086174169123045
5	336	11.6	0.095490985730615
5	342	11.7	0.10461969276094
5	363	11.8	0.11441750876973
5	369	11.9	0.11609131034133
5	375	12	0.11830974277244
5	381	12.1	0.11960962131987
5	387	12.2	0.11982343789092
5	393	12.3	0.12183185225255
5	399	12.4	0.12721705862456
5	420	12.5	0.12941176686804
5	426	12.6	0.13822902263044
5	432	12.7	0.14182981246053
5	453	12.8	0.15039627960552
5	459	12.9	0.15094959041937
5	465	13	0.15573110713758
5	471	13.1	0.1615844877264
5	477	13.2	0.16893893161225
5	483	13.3	0.1711965947472
5	489	13.4	0.17663509138762
5	510	13.5	0.18095075190435
5	516	13.6	0.19076285392414
5	522	13.7	0.19458649891564
5	543	13.8	0.19846554169101
5	549	13.9	0.20229620170449
5	555	14	0.20285872095167
5	561	14.1	0.2060405179732
5	567	14.2	0.2124454389526
5	573	14.3	0.21807511942596
5	579	14.4	0.22109880747176
5	600	14.5	0.23049655280677
5	606	14.6	0.23382888569399
5	612	14.7	0.23712250695699
5	633	14.8	0.24501868134034
5	639	14.9	0.25372941835686
5	645	15	0.2605751348603
5	651	15.1	0.2669380271262
5	686	15.2	0.27123605936668
5	692	15.3	0.27685004423275
5	698	15.4	0.27696630591429
5	719	15.5	0.28594585784613
5	725	15.6	0.29385709026032
5	731	15.7	0.30224399514864
5	752	15.8	0.30571291192803
5	758	15.9	0.31317999591487
5	764	16	0.31851688818675
5	770	16.1	0.32607263230621
5	776	16.2	0.33448293644139
5	782	16.3	0.34337918504975
5	788	16.4	0.34681588912983
5	809	16.5	0.35543405963476
5	815	16.6	0.36346823606775
5	821	16.7	0.3697809844105
5	842	16.8	0.37157105210139
5	848	16.9	0.38060003938987
5	854	17	0.38222059032316
5	860	17.1	0.39125960631198
5	866	17.2	0.39149501165976
5	872	17.3	0.39680849967659
5	878	17.4	0.39704088876857
5	899	17.5	0.40099243358844
5	905	17.6	0.40359979777499
5	911	17.7	0.41320791988536
5	932	17.8	0.42037985029067
5	938	17.9	0.42917788464478
5	944	18	0.43621648265184
5	950	18.1	0.44502920550895
5	956	18.2	0.45184937377595
5	962	18.3	0.45770674389224
5	968	18.4	0.46706526888204
5	989	18.5	0.47014054768854
5	995	18.6	0.47447453320394
5	1001	18.7	0.48182063829289
5	1022	18.8	0.48658815776366
5	1028	18.9	0.49564875270375
5	1034	19	0.49988928775205
5	1040	19.1	0.5005963257737
5	1046	19.2	0.50741063622427
5	1052	19.3	0.51073653246178
5	1058	19.4	0.51941855384172
5	1079	19.5	0.52225528186322
5	1085	19.6	0.52936122095347
5	1091	19.7	0.5375293073188
5	1112	19.8	0.54166417798861
5	1118	19.9	0.55146310248314
6	213	10.3	0.075798194079965
6	219	10.4	0.065651436108239
6	240	10.5	0.057736080565677
6	246	10.6	0.063494114253855
6	252	10.7	0.073835877684762
6	273	10.8	0.076452083352972
6	279	10.9	0.094861165384682
6	285	11	0.071414593479397
6	291	11.1	0.044804539444342
6	297	11.2	0.00069343969612862
6	303	11.3	0.041261676156877
6	309	11.4	0.049501002606831
6	330	11.5	-0.013699798218727
6	336	11.6	0.054810251172721
6	342	11.7	0.0078569892312426
6	363	11.8	0.047217419334631
6	369	11.9	-0.043573273147922
6	375	12	0.079805843367043
6	381	12.1	-0.030513087660074
6	387	12.2	0.028958793997299
6	393	12.3	-0.020136612874921
6	399	12.4	0.021928377926815
6	420	12.5	-0.0018319300492294
6	426	12.6	-0.0080948977381923
6	432	12.7	0.012697031314019
6	453	12.8	0.019394015765283
6	459	12.9	-0.013792343065143
6	465	13	0.084113859036006
6	471	13.1	0.028959936590399
6	477	13.2	0.072050148318522
6	483	13.3	-0.010537726688199
6	489	13.4	0.06751744649373
6	510	13.5	0.079717274010181
6	516	13.6	0.051378849381581
6	522	13.7	0.077548770431895
6	543	13.8	0.066651792172343
6	549	13.9	0.042026653292123
6	555	14	-0.035389770707115
6	561	14.1	0.032507501565851
6	567	14.2	0.0080404807231391
6	573	14.3	-0.035352286731359
6	579	14.4	0.085107947268989
6	600	14.5	-0.045471360289957
6	606	14.6	0.0020289951702582
6	612	14.7	0.074363562080544
6	633	14.8	0.046277174470015
6	639	14.9	-0.01260292083025
6	645	15	0.0088253999943846
6	651	15.1	0.051242915866897
6	686	15.2	0.094236186170019
6	692	15.3	0.004858892026823
6	698	15.4	-0.043842390389182
6	719	15.5	0.0020814521587453
6	725	15.6	0.004741168441251
6	731	15.7	-0.049294934840873
6	752	15.8	0.012722450168803
6	758	15.9	0.037844711798243
6	764	16	0.028795374231413
6	770	16.1	0.0064734840998426
6	776	16.2	0.049298857373651
6	782	16.3	-0.0012128483387641
6	788	16.4	0.052419738285244
6	809	16.5	-0.016751822258811
6	815	16.6	-0.042435657710302
6	821	16.7	0.00062096979236231
6	842	16.8	0.097964253718965
6	848	16.9	0.006573086010758
6	854	17	-0.0010489446576684
6	860	17.1	-0.045791749842465
6	866	17.2	-0.031729020283092
6	872	17.3	0.023556344234385
6	878	17.4	0.091642796061933
6	899	17.5	0.032326117914636
6	905	17.6	0.09700184914982
6	911	17.7	0.033743361779489
6	932	17.8	-0.04693800957175
6	938	17.9	0.046083329652902
6	944	18	0.0278659695643
6	950	18.1	-0.0032991779386066
6	956	18.2	-0.032071383972652
6	962	18.3	-0.037735320930369
6	968	18.4	0.067476680024993
6	989	18.5	0.015221670153551
6	995	18.6	-0.029765384597704
6	1001	18.7	0.02365465585608
6	1022	18.8	-0.037508443486877
6	1028	18.9	-0.038173641799949
6	1034	19	0.087533127004281
6	1040	19.1	0.058342215395533
6	1046	19.2	0.098596494738013
6	1052	19.3	-0.026351311872713
6	1058	19.4	0.0029238792136313
6	1079	19.5	-0.026207918324508
6	1085	19.6	0.060290475352667
6	1091	19.7	0.040326887252741
6	1112	19.8	0.017076777375769
6	1118	19.9	0.075258930912241
7	213	10.3	1.1111100450918
7	219	10.4	1.1114898074744
7	240	10.5	1.1118043011087
7	246	10.6	1.1122480413205
7	252	10.7	1.112823792257
7	273	10.8	1.113360426183
7	279	10.9	1.1142585491018
7	285	11	1.1143875357821
7	291	11.1	1.1142221607484
7	297	11.2	1.113465251955
7	303	11.3	1.1144052168467
7	309	11.4	1.1148534092373
7	330	11.5	1.1135632604514
7	336	11.6	1.1152092460459
7	342	11.7	1.1142893776583
7	363	11.8	1.1153824857384
7	369	11.9	1.113242667092
7	375	12	1.1163360061839
7	381	12.1	1.1137146587145
7	387	12.2	1.1151767240027
7	393	12.3	1.1139801329463
7	399	12.4	1.115027475644
7	420	12.5	1.1144808728839
7	426	12.6	1.1143019063115
7	432	12.7	1.1148327237368
7	453	12.8	1.1150873922127
7	459	12.9	1.1142564951553
7	465	13	1.1170687841662
7	471	13.1	1.1158572930035
7	477	13.2	1.1174315174959
7	483	13.3	1.1151287424354
7	489	13.4	1.1176753838674
7	510	13.5	1.1185629281365
7	516	13.6	1.1180074375855
7	522	13.7	1.1193595515714
7	543	13.8	1.1194209405957
7	549	13.9	1.118796818857
7	555	14	1.1158444748101
7	561	14.1	1.1184349167215
7	567	14.2	1.1175883177593
7	573	14.3	1.1158664447523
7	579	14.4	1.1207391175497
7	600	14.5	1.1156540760082
7	606	14.6	1.1173999997184
7	612	14.7	1.1205392601215
7	633	14.8	1.1197359412048
7	639	14.9	1.117352953457
7	645	15	1.1182374105793
7	651	15.1	1.1202197357787
7	686	15.2	1.1226360232649
7	692	15.3	1.1188240349884
7	698	15.4	1.1165629030878
7	719	15.5	1.1185009186205
7	725	15.6	1.1186361232314
7	731	15.7	1.1161795431409
7	752	15.8	1.1187848177026
7	758	15.9	1.1200385412556
7	764	16	1.1198158043298
7	770	16.1	1.1188911367594
7	776	16.2	1.1210301222907
7	782	16.3	1.1187910392237
7	788	16.4	1.1214798669516
7	809	16.5	1.1182621671461
7	815	16.6	1.1169439336489
7	821	16.7	1.11884231423
7	842	16.8	1.1238328357669
7	848	16.9	1.1196253689541
7	854	17	1.1192654918916
7	860	17.1	1.1170132183417
7	866	17.2	1.1175232022426
7	872	17.3	1.1201193504397
7	878	17.4	1.123843413723
7	899	17.5	1.1212107330216
7	905	17.6	1.1250239964219
7	911	17.7	1.1220162613821
7	932	17.8	1.1176984608329
7	938	17.9	1.1226450629456
7	944	18	1.1218628305793
7	950	18.1	1.1202260061909
7	956	18.2	1.1186016397089
7	962	18.3	1.1181640735816
7	968	18.4	1.1238870074608
7	989	18.5	1.121254897301
7	995	18.6	1.1187820594472
7	1001	18.7	1.1216625492222
7	1022	18.8	1.1183287158837
7	1028	18.9	1.1181455813205
7	1034	19	1.1250729628519
7	1040	19.1	1.1239072592249
7	1046	19.2	1.1267827588197
7	1052	19.3	1.1196539750532
7	1058	19.4	1.1212940958979
7	1079	19.5	1.1195642887793
7	1085	19.6	1.1246979950609
7	1091	19.7	1.1238052991771
7	1112	19.8	1.1225601993595
7	1118	19.9	1.1264234150452
8	213	10.3	0.086088718280769
8	219	10.4	0.083086424670556
8	240	10.5	0.080183306754717
8	246	10.6	0.081195221203254
8	252	10.7	0.066086326033332
8	273	10.8	0.074131950606978
8	279	10.9	0.040671785748317
8	285	11	0.031969687686455
8	291	11.1	0.071704880573013
8	297	11.2	0.035899552933586
8	303	11.3	0.055280362536912
8	309	11.4	0.04882997299411
8	330	11.5	0.012101636231495
8	336	11.6	0.093168166075704
8	342	11.7	0.091287070303224
8	363	11.8	0.097978160087951
8	369	11.9	0.016738015715964
8	375	12	0.022184324311092
8	381	12.1	0.012998785474338
8	387	12.2	0.0021381657104941
8	393	12.3	0.020084143616259
8	399	12.4	0.053852063720114
8	420	12.5	0.021947082434781
8	426	12.6	0.088172557624057
8	432	12.7	0.036007898300886
8	453	12.8	0.085664671449922
8	459	12.9	0.0055331081384793
8	465	13	0.047815167182125
8	471	13.1	0.058533805888146
8	477	13.2	0.073544438858517
8	483	13.3	0.022576631349512
8	489	13.4	0.054384966404177
8	510	13.5	0.043156605167315
8	516	13.6	0.098121020197869
8	522	13.7	0.038236449914985
8	543	13.8	0.038790427753702
8	549	13.9	0.03830660013482
8	555	14	0.0056251924717798
8	561	14.1	0.031817970215343
8	567	14.2	0.06404920979403
8	573	14.3	0.056296804733574
8	579	14.4	0.03023688045796
8	600	14.5	0.09397745335009
8	606	14.6	0.033323328872211
8	612	14.7	0.032936212630011
8	633	14.8	0.078961743833497
8	639	14.9	0.087107370165177
8	645	15	0.068457165034488
8	651	15.1	0.063628922658973
8	686	15.2	0.042980322404765
8	692	15.3	0.056139848660678
8	698	15.4	0.0011626168154183
8	719	15.5	0.089795519318432
8	725	15.6	0.079112324141897
8	731	15.7	0.083869048883207
8	752	15.8	0.03468916779384
8	758	15.9	0.074670839868486
8	764	16	0.053368922718801
8	770	16.1	0.075557441194542
8	776	16.2	0.084103041351773
8	782	16.3	0.088962486083619
8	788	16.4	0.034367040800862
8	809	16.5	0.086181705049239
8	815	16.6	0.080341764329933
8	821	16.7	0.063127483427525
8	842	16.8	0.017900676908903
8	848	16.9	0.090289872884751
8	854	17	0.01620550933294
8	860	17.1	0.090390159888193
8	866	17.2	0.0023540534777566
8	872	17.3	0.053134880168363
8	878	17.4	0.002323890919797
8	899	17.5	0.039515448198654
8	905	17.6	0.026073641865514
8	911	17.7	0.096081221103668
8	932	17.8	0.071719304053113
8	938	17.9	0.08798034354113
8	944	18	0.070385980070569
8	950	18.1	0.088127228571102
8	956	18.2	0.068201682670042
8	962	18.3	0.058573701162823
8	968	18.4	0.093585249898024
8	989	18.5	0.030752788065002
8	995	18.6	0.043339855154045
8	1001	18.7	0.073461050889455
8	1022	18.8	0.047675194707699
8	1028	18.9	0.090605949400924
8	1034	19	0.042405350483023
8	1040	19.1	0.0070703802164634
8	1046	19.2	0.068143104505726
8	1052	19.3	0.033258962375112
8	1058	19.4	0.086820213799365
8	1079	19.5	0.028367280215025
8	1085	19.6	0.071059390902519
8	1091	19.7	0.08168086365331
8	1112	19.8	0.041348706698046
8	1118	19.9	0.097989244945348
9	213	10.3	1.1112459166707
9	219	10.4	1.1118000301583
9	240	10.5	1.1123233352344
9	246	10.6	1.112882293534
9	252	10.7	1.1131515754991
9	273	10.8	1.1137368705576
9	279	10.9	1.113517102
9	285	11	1.1135688775203
9	291	11.1	1.114649592042
9	297	11.2	1.1142414904718
9	303	11.3	1.1149300399043
9	309	11.4	1.1150985786981
9	330	11.5	1.1144084275101
9	336	11.6	1.1167506751135
9	342	11.7	1.1173486122459
9	363	11.8	1.1182213494905
9	369	11.9	1.1160686856461
9	375	12	1.1163399488016
9	381	12.1	1.1161448281441
9	387	12.2	1.1158421863412
9	393	12.3	1.1164670357147
9	399	12.4	1.1177882082838
9	420	12.5	1.1169275146299
9	426	12.6	1.1196057215984
9	432	12.7	1.1180729191351
9	453	12.8	1.1203603899235
9	459	12.9	1.1174834140975
9	465	13	1.1193073779571
9	471	13.1	1.1200746407894
9	477	13.2	1.1211443685343
9	483	13.3	1.1191904624598
9	489	13.4	1.1208365026453
9	510	13.5	1.120611633665
9	516	13.6	1.1237140422109
9	522	13.7	1.1211806448949
9	543	13.8	1.121430053627
9	549	13.9	1.1216271099586
9	555	14	1.1200616856385
9	561	14.1	1.1215201482692
9	567	14.2	1.1235285316927
9	573	14.3	1.1234796425296
9	579	14.4	1.1222779714441
9	600	14.5	1.126340701425
9	606	14.6	1.1231589480956
9	612	14.7	1.1233222114675
9	633	14.8	1.1264837117005
9	639	14.9	1.1275679263977
9	645	15	1.1268707935932
9	651	15.1	1.1269722275181
9	686	15.2	1.1258958038846
9	692	15.3	1.1271029053813
9	698	15.4	1.1234404206654
9	719	15.5	1.1299842623245
9	725	15.6	1.1297807100492
9	731	15.7	1.1306918897991
9	752	15.8	1.1273060176112
9	758	15.9	1.1307465252375
9	764	16	1.129464975532
9	770	16.1	1.1316705149901
9	776	16.2	1.1329184925845
9	782	16.3	1.1339303877839
9	788	16.4	1.1296067397491
9	809	16.5	1.1345325782459
9	815	16.6	1.1345757482358
9	821	16.7	1.1334686513054
9	842	16.8	1.1295323076579
9	848	16.9	1.1366470422962
9	854	17	1.129936252798
9	860	17.1	1.1374031069262
9	866	17.2	1.1291133680923
9	872	17.3	1.1342291475531
9	878	17.4	1.1293814002899
9	899	17.5	1.133168571733
9	905	17.6	1.1320118468523
9	911	17.7	1.1395077342032
9	932	17.8	1.1375519801535
9	938	17.9	1.1398108153493
9	944	18	1.1384503005084
9	950	18.1	1.1409281759215
9	956	18.2	1.1392326059435
9	962	18.3	1.1385497396109
9	968	18.4	1.1430748522777
9	989	18.5	1.1361735896421
9	995	18.6	1.1378543605469
9	1001	18.7	1.1417835678032
9	1022	18.8	1.1390744181892
9	1028	18.9	1.1447443472536
9	1034	19	1.1392349122207
9	1040	19.1	1.1350133524129
9	1046	19.2	1.1428225027174
9	1052	19.3	1.1387440003203
9	1058	19.4	1.1459378399282
9	1079	19.5	1.1387771595702
9	1085	19.6	1.1446155654305
9	1091	19.7	1.1465260731736
9	1112	19.8	1.1415422654834
9	1118	19.9	1.1496410987637
